Circuit: * C:\Users\user\Documents\LTspiceXVII\file\Montecarlo\LTC1871-7_F09.asc

Per .tran options, skipping operating point for transient analysis.
.step tol1=0
.step tol1=0.05
.step tol1=0.1
.step tol1=0.15
.step tol1=0.2
.step tol1=0.25
.step tol1=0.3
.step tol1=0.35
.step tol1=0.4
.step tol1=0.45
.step tol1=0.5
.step tol1=0.55
.step tol1=0.6
.step tol1=0.65
.step tol1=0.7
.step tol1=0.75
.step tol1=0.8
.step tol1=0.85
.step tol1=0.9
.step tol1=0.95
.step tol1=1
.step tol1=1.05
.step tol1=1.1
.step tol1=1.15
.step tol1=1.2
.step tol1=1.25
.step tol1=1.3
.step tol1=1.35
.step tol1=1.4
.step tol1=1.45
.step tol1=1.5


Measurement: freq
  step	1/t_period
     1	203707
     2	204104
     3	203758
     4	204030
     5	203753
     6	203660
     7	204007
     8	203754
     9	203650
    10	203708
    11	203852
    12	203735
    13	203491
    14	203799
    15	203878
    16	203623
    17	203902
    18	204008
    19	203729
    20	203707
    21	203372
    22	203791
    23	203865
    24	203932
    25	203935
    26	203774
    27	203799
    28	203809
    29	203741
    30	203634
    31	203838

Measurement: pin
  step	AVG(-v(in)*i(v1))	FROM	TO
     1	67.0603	0.008	0.01
     2	67.0582	0.008	0.01
     3	67.0589	0.008	0.01
     4	67.0628	0.008	0.01
     5	67.0718	0.008	0.01
     6	67.0805	0.008	0.01
     7	67.0969	0.008	0.01
     8	67.1129	0.008	0.01
     9	67.1354	0.008	0.01
    10	67.163	0.008	0.01
    11	67.1885	0.008	0.01
    12	67.2198	0.008	0.01
    13	67.2562	0.008	0.01
    14	67.2988	0.008	0.01
    15	67.345	0.008	0.01
    16	67.392	0.008	0.01
    17	67.4677	0.008	0.01
    18	67.5523	0.008	0.01
    19	67.6543	0.008	0.01
    20	67.7855	0.008	0.01
    21	67.9655	0.008	0.01
    22	68.2125	0.008	0.01
    23	68.5528	0.008	0.01
    24	69.1124	0.008	0.01
    25	70.1051	0.008	0.01
    26	72.5207	0.008	0.01
    27	146.486	0.008	0.01
    28	55.6714	0.008	0.01
    29	22.8346	0.008	0.01
    30	14.083	0.008	0.01
    31	11.9872	0.008	0.01

Measurement: pout
  step	AVG(v(out)*i(rload))	FROM	TO
     1	63.2676	0.008	0.01
     2	63.2676	0.008	0.01
     3	63.2676	0.008	0.01
     4	63.2676	0.008	0.01
     5	63.2675	0.008	0.01
     6	63.2675	0.008	0.01
     7	63.2674	0.008	0.01
     8	63.2674	0.008	0.01
     9	63.2673	0.008	0.01
    10	63.2673	0.008	0.01
    11	63.2673	0.008	0.01
    12	63.2672	0.008	0.01
    13	63.2672	0.008	0.01
    14	63.2671	0.008	0.01
    15	63.2671	0.008	0.01
    16	63.2671	0.008	0.01
    17	63.2669	0.008	0.01
    18	63.2669	0.008	0.01
    19	63.2668	0.008	0.01
    20	63.2667	0.008	0.01
    21	63.2665	0.008	0.01
    22	63.2664	0.008	0.01
    23	63.2662	0.008	0.01
    24	63.2657	0.008	0.01
    25	63.2651	0.008	0.01
    26	63.2637	0.008	0.01
    27	21.0076	0.008	0.01
    28	10.6798	0.008	0.01
    29	10.6644	0.008	0.01
    30	10.662	0.008	0.01
    31	10.6621	0.008	0.01

Measurement: eff
  step	pout/pin
     1	0.943444
     2	0.943474
     3	0.943463
     4	0.943408
     5	0.94328
     6	0.943157
     7	0.942926
     8	0.942701
     9	0.942385
    10	0.941996
    11	0.941638
    12	0.941199
    13	0.940689
    14	0.940093
    15	0.939448
    16	0.938792
    17	0.937737
    18	0.936562
    19	0.935149
    20	0.933337
    21	0.930862
    22	0.927489
    23	0.922882
    24	0.915403
    25	0.902433
    26	0.872354
    27	0.14341
    28	0.191836
    29	0.467028
    30	0.757083
    31	0.88946

Measurement: t_period
  step	t2-t1
     1	4.909e-006
     2	4.89946e-006
     3	4.90778e-006
     4	4.90125e-006
     5	4.9079e-006
     6	4.91015e-006
     7	4.9018e-006
     8	4.90787e-006
     9	4.9104e-006
    10	4.90899e-006
    11	4.90551e-006
    12	4.90833e-006
    13	4.91422e-006
    14	4.9068e-006
    15	4.9049e-006
    16	4.91103e-006
    17	4.90432e-006
    18	4.90176e-006
    19	4.90848e-006
    20	4.90901e-006
    21	4.91709e-006
    22	4.90698e-006
    23	4.9052e-006
    24	4.90359e-006
    25	4.90353e-006
    26	4.9074e-006
    27	4.90681e-006
    28	4.90656e-006
    29	4.90819e-006
    30	4.91078e-006
    31	4.90586e-006

Measurement: vgmax
  step	MAX(v(vgate))	FROM	TO
     1	7.02399	0	0.01
     2	7.02416	0	0.01
     3	7.02344	0	0.01
     4	7.02325	0	0.01
     5	7.02219	0	0.01
     6	7.02196	0	0.01
     7	7.0224	0	0.01
     8	7.02358	0	0.01
     9	7.02195	0	0.01
    10	7.02394	0	0.01
    11	7.02411	0	0.01
    12	7.02368	0	0.01
    13	7.02412	0	0.01
    14	7.02158	0	0.01
    15	7.02168	0	0.01
    16	7.02391	0	0.01
    17	7.02272	0	0.01
    18	7.02085	0	0.01
    19	7.02248	0	0.01
    20	7.02223	0	0.01
    21	7.02283	0	0.01
    22	7.02149	0	0.01
    23	7.02185	0	0.01
    24	7.02138	0	0.01
    25	7.02323	0	0.01
    26	7.01757	0	0.01
    27	6.99174	0	0.01
    28	7.00473	0	0.01
    29	7.01294	0	0.01
    30	7.04182	0	0.01
    31	7.02454	0	0.01

Measurement: t1
  step	time	at
     1	0.0080018	0.0080018
     2	0.0080017	0.0080017
     3	0.00800144	0.00800144
     4	0.00800156	0.00800156
     5	0.0080018	0.0080018
     6	0.00800153	0.00800153
     7	0.0080001	0.0080001
     8	0.00800007	0.00800007
     9	0.00800059	0.00800059
    10	0.00800122	0.00800122
    11	0.00800163	0.00800163
    12	0.00800188	0.00800188
    13	0.00800157	0.00800157
    14	0.00800153	0.00800153
    15	0.00800236	0.00800236
    16	0.00800124	0.00800124
    17	0.0080003	0.0080003
    18	0.00800009	0.00800009
    19	0.00800142	0.00800142
    20	0.0080009	0.0080009
    21	0.00800072	0.00800072
    22	0.00800149	0.00800149
    23	0.00800122	0.00800122
    24	0.00800114	0.00800114
    25	0.00800169	0.00800169
    26	0.00800307	0.00800307
    27	0.00800098	0.00800098
    28	0.00800107	0.00800107
    29	0.00800194	0.00800194
    30	0.0080018	0.0080018
    31	0.00800111	0.00800111

Measurement: t2
  step	time	at
     1	0.00800671	0.00800671
     2	0.0080066	0.0080066
     3	0.00800635	0.00800635
     4	0.00800647	0.00800647
     5	0.00800671	0.00800671
     6	0.00800644	0.00800644
     7	0.008005	0.008005
     8	0.00800498	0.00800498
     9	0.0080055	0.0080055
    10	0.00800613	0.00800613
    11	0.00800653	0.00800653
    12	0.00800679	0.00800679
    13	0.00800648	0.00800648
    14	0.00800644	0.00800644
    15	0.00800727	0.00800727
    16	0.00800615	0.00800615
    17	0.0080052	0.0080052
    18	0.00800499	0.00800499
    19	0.00800633	0.00800633
    20	0.00800581	0.00800581
    21	0.00800563	0.00800563
    22	0.0080064	0.0080064
    23	0.00800612	0.00800612
    24	0.00800605	0.00800605
    25	0.00800659	0.00800659
    26	0.00800798	0.00800798
    27	0.00800588	0.00800588
    28	0.00800597	0.00800597
    29	0.00800685	0.00800685
    30	0.00800671	0.00800671
    31	0.00800601	0.00800601

Measurement: p_sw
  step	AVG(v(n001,n004)*ix(u2:d))	FROM	TO
     1	1.95965	0.008	0.01
     2	1.95624	0.008	0.01
     3	1.95449	0.008	0.01
     4	1.93956	0.008	0.01
     5	1.97686	0.008	0.01
     6	1.97202	0.008	0.01
     7	2.00357	0.008	0.01
     8	2.01438	0.008	0.01
     9	2.00699	0.008	0.01
    10	2.03234	0.008	0.01
    11	2.05984	0.008	0.01
    12	2.10803	0.008	0.01
    13	2.13708	0.008	0.01
    14	2.18853	0.008	0.01
    15	2.23592	0.008	0.01
    16	2.266	0.008	0.01
    17	2.33577	0.008	0.01
    18	2.41643	0.008	0.01
    19	2.56252	0.008	0.01
    20	2.67604	0.008	0.01
    21	2.88385	0.008	0.01
    22	3.10713	0.008	0.01
    23	3.45524	0.008	0.01
    24	4.01423	0.008	0.01
    25	5.06496	0.008	0.01
    26	7.50834	0.008	0.01
    27	124.288	0.008	0.01
    28	44.177	0.008	0.01
    29	11.4744	0.008	0.01
    30	2.72008	0.008	0.01
    31	0.618247	0.008	0.01

Measurement: t_set
  step	time	at
     1	0.000647557	0.000647557
     2	0.000647567	0.000647567
     3	0.000647635	0.000647635
     4	0.000647709	0.000647709
     5	0.000647765	0.000647765
     6	0.000647839	0.000647839
     7	0.000647933	0.000647933
     8	0.000648003	0.000648003
     9	0.000648136	0.000648136
    10	0.000648247	0.000648247
    11	0.000648394	0.000648394
    12	0.000648556	0.000648556
    13	0.000648758	0.000648758
    14	0.000648958	0.000648958
    15	0.00064928	0.00064928
    16	0.000652774	0.000652774
    17	0.000653331	0.000653331
    18	0.000657412	0.000657412
    19	0.000662788	0.000662788
    20	0.000677702	0.000677702
    21	0.000692338	0.000692338
    22	0.000707606	0.000707606
    23	0.000726402	0.000726402
    24	0.000746504	0.000746504
    25	0.000780775	0.000780775
    26	0.000982767	0.000982767
    27	0	0
    28	0	0
    29	0	0
    30	0	0
    31	0	0

Measurement: tduty
  step	tduty	FROM	TO
     1	-2.91845e-006	0.00800471	0.00800179
     2	-2.91641e-006	0.00800461	0.00800169
     3	-2.9255e-006	0.00800436	0.00800144
     4	-2.92627e-006	0.00800448	0.00800156
     5	-2.92455e-006	0.00800472	0.00800179
     6	-2.93201e-006	0.00800445	0.00800152
     7	1.9691e-006	0.00800018	0.00800215
     8	1.97507e-006	0.00800015	0.00800213
     9	1.9731e-006	0.00800067	0.00800264
    10	1.96489e-006	0.0080013	0.00800326
    11	1.9591e-006	0.0080017	0.00800366
    12	1.95854e-006	0.00800196	0.00800392
    13	1.96089e-006	0.00800164	0.0080036
    14	1.94918e-006	0.00800161	0.00800356
    15	1.94635e-006	0.00800244	0.00800438
    16	-2.95908e-006	0.00800419	0.00800123
    17	1.93214e-006	0.00800036	0.00800229
    18	-2.9758e-006	0.00800305	0.00800008
    19	-2.98452e-006	0.00800439	0.00800141
    20	-2.99354e-006	0.00800388	0.00800089
    21	-3.01226e-006	0.00800372	0.00800071
    22	1.89344e-006	0.00800154	0.00800343
    23	-3.03176e-006	0.00800424	0.00800121
    24	1.85218e-006	0.00800119	0.00800304
    25	-3.09015e-006	0.00800477	0.00800168
    26	1.7307e-006	0.00800312	0.00800485
    27	3.32849e-007	0.00800102	0.00800135
    28	3.41129e-007	0.00800111	0.00800145
    29	3.41104e-007	0.00800199	0.00800233
    30	3.39122e-007	0.00800184	0.00800218
    31	3.39583e-007	0.00800115	0.00800149

Measurement: duty_ratio
  step	1-(tduty/t_period)
     1	1.59451
     2	1.59525
     3	1.59609
     4	1.59705
     5	1.59589
     6	1.59713
     7	0.59829
     8	0.597572
     9	0.598179
    10	0.599737
    11	0.600633
    12	0.600976
    13	0.600977
    14	0.602759
    15	0.603181
    16	1.60254
    17	0.606033
    18	1.60709
    19	1.60803
    20	1.60981
    21	1.61261
    22	0.614134
    23	1.61807
    24	0.62228
    25	1.63019
    26	0.64733
    27	0.932166
    28	0.930475
    29	0.930503
    30	0.930943
    31	0.93078

Measurement: voutpp
  step	PP(v(out))	FROM	TO
     1	0.0326385	0.008	0.01
     2	0.0319481	0.008	0.01
     3	0.0324783	0.008	0.01
     4	0.032093	0.008	0.01
     5	0.032856	0.008	0.01
     6	0.0321274	0.008	0.01
     7	0.0324402	0.008	0.01
     8	0.0321922	0.008	0.01
     9	0.0320053	0.008	0.01
    10	0.0326653	0.008	0.01
    11	0.0324249	0.008	0.01
    12	0.0323448	0.008	0.01
    13	0.0322189	0.008	0.01
    14	0.0321617	0.008	0.01
    15	0.0328064	0.008	0.01
    16	0.0330124	0.008	0.01
    17	0.0321388	0.008	0.01
    18	0.0324364	0.008	0.01
    19	0.0326233	0.008	0.01
    20	0.0323944	0.008	0.01
    21	0.033165	0.008	0.01
    22	0.0327072	0.008	0.01
    23	0.0337296	0.008	0.01
    24	0.0331688	0.008	0.01
    25	0.0335808	0.008	0.01
    26	0.0342522	0.008	0.01
    27	0.392227	0.008	0.01
    28	0.0129776	0.008	0.01
    29	0.0241737	0.008	0.01
    30	0.0241337	0.008	0.01
    31	0.0245895	0.008	0.01

Measurement: vout_avg
  step	AVG(v(out))	FROM	TO
     1	42.0891	0.008	0.01
     2	42.0891	0.008	0.01
     3	42.0891	0.008	0.01
     4	42.0891	0.008	0.01
     5	42.0891	0.008	0.01
     6	42.0891	0.008	0.01
     7	42.089	0.008	0.01
     8	42.089	0.008	0.01
     9	42.089	0.008	0.01
    10	42.089	0.008	0.01
    11	42.089	0.008	0.01
    12	42.089	0.008	0.01
    13	42.089	0.008	0.01
    14	42.0889	0.008	0.01
    15	42.0889	0.008	0.01
    16	42.0889	0.008	0.01
    17	42.0889	0.008	0.01
    18	42.0889	0.008	0.01
    19	42.0888	0.008	0.01
    20	42.0888	0.008	0.01
    21	42.0887	0.008	0.01
    22	42.0887	0.008	0.01
    23	42.0886	0.008	0.01
    24	42.0885	0.008	0.01
    25	42.0883	0.008	0.01
    26	42.0878	0.008	0.01
    27	24.2529	0.008	0.01
    28	17.2926	0.008	0.01
    29	17.2801	0.008	0.01
    30	17.2782	0.008	0.01
    31	17.2783	0.008	0.01


Date: Mon Mar 28 17:34:09 2022
Total elapsed time: 571.554 seconds.

tnom = 27
temp = 27
method = modified trap
totiter = 1514048
traniter = 1514048
tranpoints = 502298
accept = 386318
rejected = 115980
matrix size = 36
fillins = 5
solver = Normal
Matrix Compiler1: 1.69 KB object code size  0.3/0.2/[0.1]
Matrix Compiler2: 2.38 KB object code size  0.2/0.3/[0.1]

