Circuit: * C:\Users\user\Documents\LTspiceXVII\file\Montecarlo\LTC1871-7_F09.asc

Per .tran options, skipping operating point for transient analysis.
.step tol1=0
.step tol1=0.01
.step tol1=0.02
.step tol1=0.03
.step tol1=0.04
.step tol1=0.05
.step tol1=0.06
.step tol1=0.07
.step tol1=0.08
.step tol1=0.09
.step tol1=0.1
.step tol1=0.11
.step tol1=0.12
.step tol1=0.13
.step tol1=0.14
.step tol1=0.15
.step tol1=0.16
.step tol1=0.17
.step tol1=0.18
.step tol1=0.19
.step tol1=0.2
.step tol1=0.21
.step tol1=0.22
.step tol1=0.23
.step tol1=0.24
.step tol1=0.25


Measurement: freq
  step	1/t_period
     1	62260.9
     2	59094.4
     3	61165.4
     4	63568.7
     5	61195.5
     6	59022.5
     7	61171.8
     8	63314.1
     9	61191.2
    10	61192.3
    11	61179.5
    12	61192.3
    13	61188
    14	61181
    15	61184.8
    16	61186.6
    17	61180.4
    18	61187.1
    19	61188.6
    20	61186.1
    21	61184.1
    22	61170.3
    23	61190.8
    24	61189.9
    25	61171.3
    26	61186.4

Measurement: pin
  step	AVG(-v(in)*i(v1))	FROM	TO
     1	66.2137	0.0095	0.01
     2	65.7476	0.0095	0.01
     3	65.1767	0.0095	0.01
     4	66.7052	0.0095	0.01
     5	65.2402	0.0095	0.01
     6	65.9711	0.0095	0.01
     7	65.3478	0.0095	0.01
     8	66.475	0.0095	0.01
     9	65.3213	0.0095	0.01
    10	275.244	0.0095	0.01
    11	256.586	0.0095	0.01
    12	238.481	0.0095	0.01
    13	220.904	0.0095	0.01
    14	204.131	0.0095	0.01
    15	188.147	0.0095	0.01
    16	173.002	0.0095	0.01
    17	158.478	0.0095	0.01
    18	144.781	0.0095	0.01
    19	131.439	0.0095	0.01
    20	118.61	0.0095	0.01
    21	106.384	0.0095	0.01
    22	95.4196	0.0095	0.01
    23	85.229	0.0095	0.01
    24	75.657	0.0095	0.01
    25	66.7008	0.0095	0.01
    26	58.3713	0.0095	0.01

Measurement: pout
  step	AVG(v(out)*i(rload))	FROM	TO
     1	63.2663	0.0095	0.01
     2	63.2715	0.0095	0.01
     3	63.2799	0.0095	0.01
     4	63.266	0.0095	0.01
     5	63.2796	0.0095	0.01
     6	63.2722	0.0095	0.01
     7	63.2706	0.0095	0.01
     8	63.267	0.0095	0.01
     9	63.2733	0.0095	0.01
    10	56.3277	0.0095	0.01
    11	49.3957	0.0095	0.01
    12	43.2601	0.0095	0.01
    13	37.8334	0.0095	0.01
    14	33.1619	0.0095	0.01
    15	29.0585	0.0095	0.01
    16	25.3554	0.0095	0.01
    17	21.9451	0.0095	0.01
    18	18.9752	0.0095	0.01
    19	16.1472	0.0095	0.01
    20	13.5145	0.0095	0.01
    21	11.2734	0.0095	0.01
    22	10.7409	0.0095	0.01
    23	10.7103	0.0095	0.01
    24	10.6957	0.0095	0.01
    25	10.6863	0.0095	0.01
    26	10.6797	0.0095	0.01

Measurement: eff
  step	pout/pin
     1	0.955487
     2	0.96234
     3	0.970897
     4	0.948442
     5	0.969949
     6	0.959089
     7	0.968213
     8	0.95174
     9	0.968648
    10	0.204647
    11	0.192512
    12	0.181398
    13	0.171266
    14	0.162454
    15	0.154446
    16	0.146561
    17	0.138474
    18	0.131061
    19	0.122849
    20	0.113941
    21	0.105969
    22	0.112565
    23	0.125665
    24	0.14137
    25	0.160212
    26	0.182961

Measurement: t_period
  step	t2-t1
     1	1.60615e-005
     2	1.69221e-005
     3	1.63491e-005
     4	1.5731e-005
     5	1.63411e-005
     6	1.69427e-005
     7	1.63474e-005
     8	1.57943e-005
     9	1.63422e-005
    10	1.63419e-005
    11	1.63454e-005
    12	1.63419e-005
    13	1.63431e-005
    14	1.6345e-005
    15	1.63439e-005
    16	1.63435e-005
    17	1.63451e-005
    18	1.63433e-005
    19	1.63429e-005
    20	1.63436e-005
    21	1.63441e-005
    22	1.63478e-005
    23	1.63423e-005
    24	1.63426e-005
    25	1.63475e-005
    26	1.63435e-005

Measurement: vgmax
  step	MAX(v(vgate))	FROM	TO
     1	7.08536	0	0.01
     2	7.10259	0	0.01
     3	7.11393	0	0.01
     4	7.10163	0	0.01
     5	7.0682	0	0.01
     6	7.11109	0	0.01
     7	7.0464	0	0.01
     8	7.12677	0	0.01
     9	7.12071	0	0.01
    10	7.0388	0	0.01
    11	7.03749	0	0.01
    12	7.03597	0	0.01
    13	7.03422	0	0.01
    14	7.03254	0	0.01
    15	7.03106	0	0.01
    16	7.03017	0	0.01
    17	7.03366	0	0.01
    18	7.03601	0	0.01
    19	7.03878	0	0.01
    20	7.04091	0	0.01
    21	7.04338	0	0.01
    22	7.04496	0	0.01
    23	7.04661	0	0.01
    24	7.04655	0	0.01
    25	7.04499	0	0.01
    26	7.04463	0	0.01

Measurement: t1
  step	time	at
     1	0.00950155	0.00950155
     2	0.0095076	0.0095076
     3	0.00950355	0.00950355
     4	0.00950751	0.00950751
     5	0.00950477	0.00950477
     6	0.00950504	0.00950504
     7	0.0095046	0.0095046
     8	0.00950891	0.00950891
     9	0.00950571	0.00950571
    10	0.0095129	0.0095129
    11	0.00951285	0.00951285
    12	0.00951274	0.00951274
    13	0.00951282	0.00951282
    14	0.00951288	0.00951288
    15	0.00951279	0.00951279
    16	0.0095129	0.0095129
    17	0.009513	0.009513
    18	0.00951285	0.00951285
    19	0.00951297	0.00951297
    20	0.00951295	0.00951295
    21	0.00951301	0.00951301
    22	0.00951312	0.00951312
    23	0.00951314	0.00951314
    24	0.00951324	0.00951324
    25	0.00951303	0.00951303
    26	0.00951319	0.00951319

Measurement: t2
  step	time	at
     1	0.00951761	0.00951761
     2	0.00952452	0.00952452
     3	0.0095199	0.0095199
     4	0.00952324	0.00952324
     5	0.00952112	0.00952112
     6	0.00952198	0.00952198
     7	0.00952095	0.00952095
     8	0.0095247	0.0095247
     9	0.00952205	0.00952205
    10	0.00952924	0.00952924
    11	0.00952919	0.00952919
    12	0.00952908	0.00952908
    13	0.00952916	0.00952916
    14	0.00952923	0.00952923
    15	0.00952914	0.00952914
    16	0.00952924	0.00952924
    17	0.00952934	0.00952934
    18	0.0095292	0.0095292
    19	0.00952932	0.00952932
    20	0.00952929	0.00952929
    21	0.00952935	0.00952935
    22	0.00952946	0.00952946
    23	0.00952948	0.00952948
    24	0.00952959	0.00952959
    25	0.00952938	0.00952938
    26	0.00952953	0.00952953

Measurement: p_sw
  step	AVG(v(n001,n004)*ix(u2:d))	FROM	TO
     1	1.20555	0.0095	0.01
     2	1.18357	0.0095	0.01
     3	1.17654	0.0095	0.01
     4	1.23816	0.0095	0.01
     5	1.19138	0.0095	0.01
     6	1.22408	0.0095	0.01
     7	1.22198	0.0095	0.01
     8	1.28229	0.0095	0.01
     9	1.24587	0.0095	0.01
    10	220.739	0.0095	0.01
    11	208.695	0.0095	0.01
    12	196.441	0.0095	0.01
    13	184.549	0.0095	0.01
    14	172.392	0.0095	0.01
    15	159.288	0.0095	0.01
    16	146.764	0.0095	0.01
    17	135.504	0.0095	0.01
    18	125.111	0.0095	0.01
    19	114.911	0.0095	0.01
    20	104.764	0.0095	0.01
    21	94.559	0.0095	0.01
    22	84.1262	0.0095	0.01
    23	73.9917	0.0095	0.01
    24	64.4517	0.0095	0.01
    25	55.5192	0.0095	0.01
    26	47.2061	0.0095	0.01

Measurement: t_set
  step	time	at
     1	0.00055532	0.00055532
     2	0.000572307	0.000572307
     3	0.000605633	0.000605633
     4	0.000687853	0.000687853
     5	0.000850942	0.000850942
     6	0.00134203	0.00134203
     7	0.00202854	0.00202854
     8	0.00251899	0.00251899
     9	0.00349973	0.00349973
    10	0	0
    11	0	0
    12	0	0
    13	0	0
    14	0	0
    15	0	0
    16	0	0
    17	0	0
    18	0	0
    19	0	0
    20	0	0
    21	0	0
    22	0	0
    23	0	0
    24	0	0
    25	0	0
    26	0	0

Measurement: tduty
  step	tduty	FROM	TO
     1	6.13183e-006	0.00950157	0.00950771
     2	6.82669e-006	0.00950763	0.00951445
     3	-9.29486e-006	0.00951284	0.00950355
     4	6.27451e-006	0.0095076	0.00951387
     5	-9.42139e-006	0.00951419	0.00950477
     6	6.8482e-006	0.00950513	0.00951197
     7	-1.03106e-005	0.00951491	0.0095046
     8	6.34182e-006	0.00950899	0.00951533
     9	-1.0195e-005	0.0095159	0.00950571
    10	1.2814e-006	0.00951292	0.00951421
    11	1.27935e-006	0.00951287	0.00951415
    12	1.28104e-006	0.00951277	0.00951405
    13	1.27801e-006	0.00951285	0.00951412
    14	1.27447e-006	0.00951291	0.00951419
    15	1.27716e-006	0.00951282	0.0095141
    16	1.27821e-006	0.00951292	0.0095142
    17	1.28108e-006	0.00951302	0.0095143
    18	1.28148e-006	0.00951288	0.00951416
    19	1.28427e-006	0.00951299	0.00951428
    20	1.28551e-006	0.00951297	0.00951425
    21	1.29054e-006	0.00951303	0.00951432
    22	1.2902e-006	0.00951313	0.00951442
    23	1.28986e-006	0.00951316	0.00951445
    24	1.28705e-006	0.00951326	0.00951455
    25	1.28723e-006	0.00951305	0.00951434
    26	1.28865e-006	0.00951321	0.00951449

Measurement: duty_ratio
  step	1-(tduty/t_period)
     1	0.618227
     2	0.596581
     3	1.56852
     4	0.601137
     5	1.57655
     6	0.595802
     7	1.63072
     8	0.598473
     9	1.62385
    10	0.921589
    11	0.92173
    12	0.92161
    13	0.921801
    14	0.922027
    15	0.921857
    16	0.921791
    17	0.921623
    18	0.92159
    19	0.921417
    20	0.921345
    21	0.92104
    22	0.921078
    23	0.921073
    24	0.921246
    25	0.921259
    26	0.921152

Measurement: voutpp
  step	PP(v(out))	FROM	TO
     1	0.209381	0.0095	0.00951606
     2	0.179729	0.0095	0.00951692
     3	0.204044	0.0095	0.00951635
     4	0.254135	0.0095	0.00951573
     5	0.20583	0.0095	0.00951634
     6	0.184834	0.0095	0.00951694
     7	0.231453	0.0095	0.00951635
     8	0.255394	0.0095	0.00951579
     9	0.231194	0.0095	0.00951634
    10	0.28849	0.0095	0.00951634
    11	0.269432	0.0095	0.00951635
    12	0.252789	0.0095	0.00951634
    13	0.23756	0.0095	0.00951634
    14	0.224241	0.0095	0.00951634
    15	0.209354	0.0095	0.00951634
    16	0.196058	0.0095	0.00951634
    17	0.185778	0.0095	0.00951635
    18	0.169231	0.0095	0.00951634
    19	0.155914	0.0095	0.00951634
    20	0.142056	0.0095	0.00951634
    21	0.128567	0.0095	0.00951634
    22	0.114401	0.0095	0.00951635
    23	0.101068	0.0095	0.00951634
    24	0.0883255	0.0095	0.00951634
    25	0.0764503	0.0095	0.00951635
    26	0.0652885	0.0095	0.00951634

Measurement: vout_avg
  step	AVG(v(out))	FROM	TO
     1	42.0886	0.0095	0.01
     2	42.0903	0.0095	0.01
     3	42.0931	0.0095	0.01
     4	42.0885	0.0095	0.01
     5	42.093	0.0095	0.01
     6	42.0906	0.0095	0.01
     7	42.09	0.0095	0.01
     8	42.0888	0.0095	0.01
     9	42.0909	0.0095	0.01
    10	39.7136	0.0095	0.01
    11	37.1897	0.0095	0.01
    12	34.8034	0.0095	0.01
    13	32.5474	0.0095	0.01
    14	30.4718	0.0095	0.01
    15	28.5243	0.0095	0.01
    16	26.6449	0.0095	0.01
    17	24.7883	0.0095	0.01
    18	23.05	0.0095	0.01
    19	21.2631	0.0095	0.01
    20	19.4526	0.0095	0.01
    21	17.7666	0.0095	0.01
    22	17.342	0.0095	0.01
    23	17.3173	0.0095	0.01
    24	17.3054	0.0095	0.01
    25	17.2978	0.0095	0.01
    26	17.2925	0.0095	0.01


Date: Sun Mar 27 20:37:13 2022
Total elapsed time: 566.334 seconds.

tnom = 27
temp = 27
method = modified trap
totiter = 9360784
traniter = 9360784
tranpoints = 2263410
accept = 1695412
rejected = 567998
matrix size = 37
fillins = 7
solver = Normal
Matrix Compiler1: 2.05 KB object code size  0.3/0.2/[0.1]
Matrix Compiler2: 2.55 KB object code size  0.2/0.3/[0.1]

