Circuit: * C:\Users\user\Documents\LTspiceXVII\file\LTSPICE_AGING\Montecarlo\LTC1871-7_F09.asc

Per .tran options, skipping operating point for transient analysis.
.step tol1=0 r_freq=120000
.step tol1=0.05 r_freq=120000
.step tol1=0.1 r_freq=120000
.step tol1=0.15 r_freq=120000
.step tol1=0.2 r_freq=120000
.step tol1=0.25 r_freq=120000
.step tol1=0.3 r_freq=120000
.step tol1=0.35 r_freq=120000
.step tol1=0.4 r_freq=120000
.step tol1=0.45 r_freq=120000
.step tol1=0.5 r_freq=120000
.step tol1=0.55 r_freq=120000
.step tol1=0.6 r_freq=120000
.step tol1=0.65 r_freq=120000
.step tol1=0.7 r_freq=120000
.step tol1=0.75 r_freq=120000
.step tol1=0.8 r_freq=120000
.step tol1=0.85 r_freq=120000
.step tol1=0.9 r_freq=120000
.step tol1=0.95 r_freq=120000
.step tol1=1 r_freq=120000
.step tol1=1.05 r_freq=120000
.step tol1=1.1 r_freq=120000
.step tol1=1.15 r_freq=120000
.step tol1=1.2 r_freq=120000
.step tol1=1.25 r_freq=120000
.step tol1=1.3 r_freq=120000
.step tol1=1.35 r_freq=120000
.step tol1=1.4 r_freq=120000
.step tol1=1.45 r_freq=120000
.step tol1=1.5 r_freq=120000
.step tol1=1.55 r_freq=120000
.step tol1=1.6 r_freq=120000
.step tol1=1.65 r_freq=120000
.step tol1=1.7 r_freq=120000
.step tol1=1.75 r_freq=120000
.step tol1=1.8 r_freq=120000
.step tol1=1.85 r_freq=120000
.step tol1=1.9 r_freq=120000
.step tol1=1.95 r_freq=120000
.step tol1=2 r_freq=120000
.step tol1=2.05 r_freq=120000
.step tol1=2.1 r_freq=120000
.step tol1=2.15 r_freq=120000
.step tol1=2.2 r_freq=120000
.step tol1=2.25 r_freq=120000
.step tol1=2.3 r_freq=120000
.step tol1=2.35 r_freq=120000
.step tol1=2.4 r_freq=120000
.step tol1=2.45 r_freq=120000
.step tol1=2.5 r_freq=120000
.step tol1=0 r_freq=155000
.step tol1=0.05 r_freq=155000
.step tol1=0.1 r_freq=155000
.step tol1=0.15 r_freq=155000
.step tol1=0.2 r_freq=155000
.step tol1=0.25 r_freq=155000
.step tol1=0.3 r_freq=155000
.step tol1=0.35 r_freq=155000
.step tol1=0.4 r_freq=155000
.step tol1=0.45 r_freq=155000
.step tol1=0.5 r_freq=155000
.step tol1=0.55 r_freq=155000
.step tol1=0.6 r_freq=155000
.step tol1=0.65 r_freq=155000
.step tol1=0.7 r_freq=155000
.step tol1=0.75 r_freq=155000
.step tol1=0.8 r_freq=155000
.step tol1=0.85 r_freq=155000
.step tol1=0.9 r_freq=155000
.step tol1=0.95 r_freq=155000
.step tol1=1 r_freq=155000
.step tol1=1.05 r_freq=155000
.step tol1=1.1 r_freq=155000
.step tol1=1.15 r_freq=155000
.step tol1=1.2 r_freq=155000
.step tol1=1.25 r_freq=155000
.step tol1=1.3 r_freq=155000
.step tol1=1.35 r_freq=155000
.step tol1=1.4 r_freq=155000
.step tol1=1.45 r_freq=155000
.step tol1=1.5 r_freq=155000
.step tol1=1.55 r_freq=155000
.step tol1=1.6 r_freq=155000
.step tol1=1.65 r_freq=155000
.step tol1=1.7 r_freq=155000
.step tol1=1.75 r_freq=155000
.step tol1=1.8 r_freq=155000
.step tol1=1.85 r_freq=155000
.step tol1=1.9 r_freq=155000
.step tol1=1.95 r_freq=155000
.step tol1=2 r_freq=155000
.step tol1=2.05 r_freq=155000
.step tol1=2.1 r_freq=155000
.step tol1=2.15 r_freq=155000
.step tol1=2.2 r_freq=155000
.step tol1=2.25 r_freq=155000
.step tol1=2.3 r_freq=155000
.step tol1=2.35 r_freq=155000
.step tol1=2.4 r_freq=155000
.step tol1=2.45 r_freq=155000
.step tol1=2.5 r_freq=155000
.step tol1=0 r_freq=250000
.step tol1=0.05 r_freq=250000
.step tol1=0.1 r_freq=250000
.step tol1=0.15 r_freq=250000
.step tol1=0.2 r_freq=250000
.step tol1=0.25 r_freq=250000
.step tol1=0.3 r_freq=250000
.step tol1=0.35 r_freq=250000
.step tol1=0.4 r_freq=250000
.step tol1=0.45 r_freq=250000
.step tol1=0.5 r_freq=250000
.step tol1=0.55 r_freq=250000
.step tol1=0.6 r_freq=250000
.step tol1=0.65 r_freq=250000
.step tol1=0.7 r_freq=250000
.step tol1=0.75 r_freq=250000
.step tol1=0.8 r_freq=250000
.step tol1=0.85 r_freq=250000
.step tol1=0.9 r_freq=250000
.step tol1=0.95 r_freq=250000
.step tol1=1 r_freq=250000
.step tol1=1.05 r_freq=250000
.step tol1=1.1 r_freq=250000
.step tol1=1.15 r_freq=250000
.step tol1=1.2 r_freq=250000
.step tol1=1.25 r_freq=250000
.step tol1=1.3 r_freq=250000
.step tol1=1.35 r_freq=250000
.step tol1=1.4 r_freq=250000
.step tol1=1.45 r_freq=250000
.step tol1=1.5 r_freq=250000
.step tol1=1.55 r_freq=250000
.step tol1=1.6 r_freq=250000
.step tol1=1.65 r_freq=250000
.step tol1=1.7 r_freq=250000
.step tol1=1.75 r_freq=250000
.step tol1=1.8 r_freq=250000
.step tol1=1.85 r_freq=250000
.step tol1=1.9 r_freq=250000
.step tol1=1.95 r_freq=250000
.step tol1=2 r_freq=250000
.step tol1=2.05 r_freq=250000
.step tol1=2.1 r_freq=250000
.step tol1=2.15 r_freq=250000
.step tol1=2.2 r_freq=250000
.step tol1=2.25 r_freq=250000
.step tol1=2.3 r_freq=250000
.step tol1=2.35 r_freq=250000
.step tol1=2.4 r_freq=250000
.step tol1=2.45 r_freq=250000
.step tol1=2.5 r_freq=250000
.step tol1=0 r_freq=300000
.step tol1=0.05 r_freq=300000
.step tol1=0.1 r_freq=300000
.step tol1=0.15 r_freq=300000
.step tol1=0.2 r_freq=300000
.step tol1=0.25 r_freq=300000
.step tol1=0.3 r_freq=300000
.step tol1=0.35 r_freq=300000
.step tol1=0.4 r_freq=300000
.step tol1=0.45 r_freq=300000
.step tol1=0.5 r_freq=300000
.step tol1=0.55 r_freq=300000
.step tol1=0.6 r_freq=300000
.step tol1=0.65 r_freq=300000
.step tol1=0.7 r_freq=300000
.step tol1=0.75 r_freq=300000
.step tol1=0.8 r_freq=300000
.step tol1=0.85 r_freq=300000
.step tol1=0.9 r_freq=300000
.step tol1=0.95 r_freq=300000
.step tol1=1 r_freq=300000
.step tol1=1.05 r_freq=300000
.step tol1=1.1 r_freq=300000
.step tol1=1.15 r_freq=300000
.step tol1=1.2 r_freq=300000
.step tol1=1.25 r_freq=300000
.step tol1=1.3 r_freq=300000
.step tol1=1.35 r_freq=300000
.step tol1=1.4 r_freq=300000
.step tol1=1.45 r_freq=300000
.step tol1=1.5 r_freq=300000
.step tol1=1.55 r_freq=300000
.step tol1=1.6 r_freq=300000
.step tol1=1.65 r_freq=300000
.step tol1=1.7 r_freq=300000
.step tol1=1.75 r_freq=300000
.step tol1=1.8 r_freq=300000
.step tol1=1.85 r_freq=300000
.step tol1=1.9 r_freq=300000
.step tol1=1.95 r_freq=300000
.step tol1=2 r_freq=300000
.step tol1=2.05 r_freq=300000
.step tol1=2.1 r_freq=300000
.step tol1=2.15 r_freq=300000
.step tol1=2.2 r_freq=300000
.step tol1=2.25 r_freq=300000
.step tol1=2.3 r_freq=300000
.step tol1=2.35 r_freq=300000
.step tol1=2.4 r_freq=300000
.step tol1=2.45 r_freq=300000
.step tol1=2.5 r_freq=300000
.step tol1=0 r_freq=400000
.step tol1=0.05 r_freq=400000
.step tol1=0.1 r_freq=400000
.step tol1=0.15 r_freq=400000
.step tol1=0.2 r_freq=400000
.step tol1=0.25 r_freq=400000
.step tol1=0.3 r_freq=400000
.step tol1=0.35 r_freq=400000
.step tol1=0.4 r_freq=400000
.step tol1=0.45 r_freq=400000
.step tol1=0.5 r_freq=400000
.step tol1=0.55 r_freq=400000
.step tol1=0.6 r_freq=400000
.step tol1=0.65 r_freq=400000
.step tol1=0.7 r_freq=400000
.step tol1=0.75 r_freq=400000
.step tol1=0.8 r_freq=400000
.step tol1=0.85 r_freq=400000
.step tol1=0.9 r_freq=400000
.step tol1=0.95 r_freq=400000
.step tol1=1 r_freq=400000
.step tol1=1.05 r_freq=400000
.step tol1=1.1 r_freq=400000
.step tol1=1.15 r_freq=400000
.step tol1=1.2 r_freq=400000
.step tol1=1.25 r_freq=400000
.step tol1=1.3 r_freq=400000
.step tol1=1.35 r_freq=400000
.step tol1=1.4 r_freq=400000
.step tol1=1.45 r_freq=400000
.step tol1=1.5 r_freq=400000
.step tol1=1.55 r_freq=400000
.step tol1=1.6 r_freq=400000
.step tol1=1.65 r_freq=400000
.step tol1=1.7 r_freq=400000
.step tol1=1.75 r_freq=400000
.step tol1=1.8 r_freq=400000
.step tol1=1.85 r_freq=400000
.step tol1=1.9 r_freq=400000
.step tol1=1.95 r_freq=400000
.step tol1=2 r_freq=400000
.step tol1=2.05 r_freq=400000
.step tol1=2.1 r_freq=400000
.step tol1=2.15 r_freq=400000
.step tol1=2.2 r_freq=400000
.step tol1=2.25 r_freq=400000
.step tol1=2.3 r_freq=400000
.step tol1=2.35 r_freq=400000
.step tol1=2.4 r_freq=400000
.step tol1=2.45 r_freq=400000
.step tol1=2.5 r_freq=400000


Measurement: freq
  step	1/t_period
     1	204138
     2	203785
     3	203894
     4	203577
     5	203818
     6	203963
     7	203508
     8	203632
     9	203725
    10	203866
    11	203725
    12	203423
    13	203895
    14	203785
    15	203640
    16	203845
    17	203935
    18	203996
    19	203661
    20	203701
    21	203819
    22	203674
    23	203892
    24	203774
    25	203808
    26	203864
    27	203523
    28	203974
    29	203629
    30	203403
    31	203894
    32	203691
    33	203794
    34	203845
    35	203467
    36	204095
    37	203587
    38	203693
    39	203835
    40	203925
    41	203921
    42	203840
    43	203414
    44	204435
    45	203146
    46	203740
    47	203887
    48	203465
    49	203845
    50	203675
    51	203835
    52	157767
    53	157769
    54	157908
    55	157763
    56	157851
    57	157816
    58	157936
    59	157873
    60	157753
    61	157740
    62	157926
    63	157933
    64	157818
    65	157872
    66	157802
    67	157819
    68	157807
    69	157906
    70	157793
    71	157914
    72	157801
    73	157945
    74	157882
    75	157785
    76	157730
    77	157792
    78	157840
    79	157820
    80	157724
    81	157894
    82	157735
    83	157897
    84	157808
    85	157733
    86	157755
    87	157729
    88	157948
    89	157752
    90	157806
    91	157969
    92	157778
    93	157828
    94	157933
    95	157851
    96	157813
    97	157680
    98	157816
    99	157866
   100	157790
   101	157789
   102	157809
   103	97880.4
   104	97917.5
   105	97868.5
   106	97917.6
   107	97838.1
   108	97995.4
   109	97885.3
   110	97862.2
   111	97886.8
   112	97819
   113	97820.3
   114	97910.6
   115	97752.5
   116	97778.8
   117	97905.3
   118	97874.6
   119	97823.1
   120	97880.3
   121	97885.8
   122	97859.9
   123	97903.5
   124	97851.4
   125	97835
   126	97856.2
   127	97906.3
   128	97849.1
   129	97839.9
   130	97848.2
   131	97891.1
   132	97876.4
   133	97841.9
   134	97904.5
   135	97870
   136	97861
   137	97899.4
   138	97797.9
   139	97893.1
   140	97893.4
   141	97884.5
   142	97892.5
   143	97937.5
   144	97816.2
   145	97890.7
   146	97900.3
   147	97901.1
   148	97920.7
   149	97934
   150	97879
   151	97868.4
   152	97889.6
   153	97874
   154	81577.2
   155	81575.1
   156	81553.5
   157	81532.4
   158	81565.2
   159	81585.7
   160	81596.3
   161	81540.3
   162	81582.4
   163	81603.5
   164	81578.5
   165	81633.6
   166	81536
   167	81566
   168	81575.6
   169	81538.9
   170	81580.9
   171	81509.7
   172	81606.6
   173	81579.6
   174	81491.2
   175	81526.8
   176	81587.9
   177	81528.8
   178	81580.3
   179	81559.5
   180	81632.6
   181	81590.7
   182	81572.9
   183	81501
   184	81569.4
   185	81619
   186	81529.1
   187	81560.6
   188	81625.5
   189	81547.3
   190	81555.3
   191	81511
   192	81552.9
   193	81570.6
   194	81618.5
   195	81559.8
   196	81577.4
   197	81607.8
   198	81613.8
   199	81607.9
   200	81555.8
   201	81550.8
   202	81586.7
   203	81523.5
   204	81573.7
   205	61170.1
   206	61196.6
   207	61178.5
   208	61185.4
   209	61170.5
   210	61154.7
   211	61186.4
   212	61182.4
   213	61186.2
   214	61179.1
   215	61181.4
   216	61241.5
   217	61180.5
   218	61165
   219	61186.7
   220	61151.5
   221	61153.9
   222	61211.7
   223	61186.3
   224	61173.8
   225	61177.5
   226	61153.9
   227	61224.3
   228	61170.7
   229	61194.4
   230	61227.1
   231	61228
   232	61185.7
   233	61185.6
   234	61179.3
   235	61193.8
   236	61169.2
   237	61193.5
   238	61154.2
   239	61199.1
   240	61201.5
   241	61203.6
   242	61184.9
   243	61179.4
   244	61183.4
   245	61165.9
   246	61218.6
   247	61164.2
   248	61162.4
   249	61171.9
   250	61160.7
   251	61170.6
   252	61213.8
   253	61190.1
   254	61169.2
   255	61191.9

Measurement: pin
  step	AVG(-v(in)*i(v1))	FROM	TO
     1	66.9887	0.0065	0.007
     2	66.9732	0.0065	0.007
     3	66.959	0.0065	0.007
     4	66.9459	0.0065	0.007
     5	66.9304	0.0065	0.007
     6	66.9271	0.0065	0.007
     7	66.9091	0.0065	0.007
     8	66.9242	0.0065	0.007
     9	66.9163	0.0065	0.007
    10	66.9094	0.0065	0.007
    11	66.9108	0.0065	0.007
    12	66.8989	0.0065	0.007
    13	66.8953	0.0065	0.007
    14	66.8924	0.0065	0.007
    15	66.8999	0.0065	0.007
    16	66.8993	0.0065	0.007
    17	66.896	0.0065	0.007
    18	66.8956	0.0065	0.007
    19	66.9005	0.0065	0.007
    20	66.9048	0.0065	0.007
    21	66.9101	0.0065	0.007
    22	66.9229	0.0065	0.007
    23	66.9315	0.0065	0.007
    24	66.9436	0.0065	0.007
    25	66.9493	0.0065	0.007
    26	66.9623	0.0065	0.007
    27	66.9777	0.0065	0.007
    28	66.9994	0.0065	0.007
    29	67.0173	0.0065	0.007
    30	67.0316	0.0065	0.007
    31	67.0484	0.0065	0.007
    32	67.0765	0.0065	0.007
    33	67.1116	0.0065	0.007
    34	67.1382	0.0065	0.007
    35	67.1759	0.0065	0.007
    36	67.2184	0.0065	0.007
    37	67.2669	0.0065	0.007
    38	67.3359	0.0065	0.007
    39	67.3907	0.0065	0.007
    40	67.4643	0.0065	0.007
    41	67.5584	0.0065	0.007
    42	67.6656	0.0065	0.007
    43	67.8082	0.0065	0.007
    44	67.9805	0.0065	0.007
    45	68.2068	0.0065	0.007
    46	68.5039	0.0065	0.007
    47	68.928	0.0065	0.007
    48	69.5524	0.0065	0.007
    49	70.6287	0.0065	0.007
    50	130.518	0.0065	0.007
    51	109.06	0.0065	0.007
    52	66.4687	0.0065	0.007
    53	66.4574	0.0065	0.007
    54	66.4542	0.0065	0.007
    55	66.4349	0.0065	0.007
    56	66.4255	0.0065	0.007
    57	66.4242	0.0065	0.007
    58	66.4116	0.0065	0.007
    59	66.4083	0.0065	0.007
    60	66.4035	0.0065	0.007
    61	66.4048	0.0065	0.007
    62	66.3975	0.0065	0.007
    63	66.3943	0.0065	0.007
    64	66.3881	0.0065	0.007
    65	66.394	0.0065	0.007
    66	66.3965	0.0065	0.007
    67	66.397	0.0065	0.007
    68	66.3939	0.0065	0.007
    69	66.3995	0.0065	0.007
    70	66.3994	0.0065	0.007
    71	66.4055	0.0065	0.007
    72	66.4037	0.0065	0.007
    73	66.4157	0.0065	0.007
    74	66.4201	0.0065	0.007
    75	66.4251	0.0065	0.007
    76	66.4333	0.0065	0.007
    77	66.4378	0.0065	0.007
    78	66.4515	0.0065	0.007
    79	66.4659	0.0065	0.007
    80	66.4769	0.0065	0.007
    81	66.4903	0.0065	0.007
    82	66.5021	0.0065	0.007
    83	66.5278	0.0065	0.007
    84	66.5517	0.0065	0.007
    85	66.5714	0.0065	0.007
    86	66.6022	0.0065	0.007
    87	66.628	0.0065	0.007
    88	66.6666	0.0065	0.007
    89	66.7063	0.0065	0.007
    90	66.7515	0.0065	0.007
    91	66.8154	0.0065	0.007
    92	66.879	0.0065	0.007
    93	66.9623	0.0065	0.007
    94	67.0635	0.0065	0.007
    95	67.1859	0.0065	0.007
    96	67.3449	0.0065	0.007
    97	67.5542	0.0065	0.007
    98	67.8394	0.0065	0.007
    99	68.272	0.0065	0.007
   100	68.9679	0.0065	0.007
   101	70.3359	0.0065	0.007
   102	110.312	0.0065	0.007
   103	65.8319	0.0065	0.007
   104	65.8294	0.0065	0.007
   105	65.8249	0.0065	0.007
   106	65.8118	0.0065	0.007
   107	65.8081	0.0065	0.007
   108	65.8128	0.0065	0.007
   109	65.8022	0.0065	0.007
   110	65.8018	0.0065	0.007
   111	65.7959	0.0065	0.007
   112	65.7997	0.0065	0.007
   113	65.7945	0.0065	0.007
   114	65.7895	0.0065	0.007
   115	65.7963	0.0065	0.007
   116	65.7843	0.0065	0.007
   117	65.7881	0.0065	0.007
   118	65.7881	0.0065	0.007
   119	65.7858	0.0065	0.007
   120	65.7912	0.0065	0.007
   121	65.7903	0.0065	0.007
   122	65.7926	0.0065	0.007
   123	65.7902	0.0065	0.007
   124	65.8002	0.0065	0.007
   125	65.8001	0.0065	0.007
   126	65.7984	0.0065	0.007
   127	65.8045	0.0065	0.007
   128	65.8117	0.0065	0.007
   129	65.8208	0.0065	0.007
   130	65.8267	0.0065	0.007
   131	65.8341	0.0065	0.007
   132	65.8385	0.0065	0.007
   133	65.8452	0.0065	0.007
   134	65.8611	0.0065	0.007
   135	65.8684	0.0065	0.007
   136	65.8872	0.0065	0.007
   137	65.8997	0.0065	0.007
   138	65.9127	0.0065	0.007
   139	65.934	0.0065	0.007
   140	65.9598	0.0065	0.007
   141	65.9884	0.0065	0.007
   142	66.0147	0.0065	0.007
   143	66.0507	0.0065	0.007
   144	66.0872	0.0065	0.007
   145	66.1448	0.0065	0.007
   146	66.2202	0.0065	0.007
   147	66.2966	0.0065	0.007
   148	66.4059	0.0065	0.007
   149	66.5495	0.0065	0.007
   150	66.7564	0.0065	0.007
   151	67.0854	0.0065	0.007
   152	67.6515	0.0065	0.007
   153	112.155	0.0065	0.007
   154	65.7043	0.0065	0.007
   155	65.7052	0.0065	0.007
   156	65.6941	0.0065	0.007
   157	65.6893	0.0065	0.007
   158	65.687	0.0065	0.007
   159	65.6795	0.0065	0.007
   160	65.6792	0.0065	0.007
   161	65.6745	0.0065	0.007
   162	65.6789	0.0065	0.007
   163	65.6735	0.0065	0.007
   164	65.6761	0.0065	0.007
   165	65.6633	0.0065	0.007
   166	65.6627	0.0065	0.007
   167	65.67	0.0065	0.007
   168	65.6691	0.0065	0.007
   169	65.6714	0.0065	0.007
   170	65.6659	0.0065	0.007
   171	65.6652	0.0065	0.007
   172	65.6714	0.0065	0.007
   173	65.6721	0.0065	0.007
   174	65.6713	0.0065	0.007
   175	65.6703	0.0065	0.007
   176	65.6784	0.0065	0.007
   177	65.6793	0.0065	0.007
   178	65.6758	0.0065	0.007
   179	65.6906	0.0065	0.007
   180	65.7	0.0065	0.007
   181	65.6957	0.0065	0.007
   182	65.6979	0.0065	0.007
   183	65.7102	0.0065	0.007
   184	65.7114	0.0065	0.007
   185	65.7258	0.0065	0.007
   186	65.7341	0.0065	0.007
   187	65.7363	0.0065	0.007
   188	65.7583	0.0065	0.007
   189	65.7714	0.0065	0.007
   190	65.7843	0.0065	0.007
   191	65.7972	0.0065	0.007
   192	65.8224	0.0065	0.007
   193	65.8446	0.0065	0.007
   194	65.8756	0.0065	0.007
   195	65.9105	0.0065	0.007
   196	65.9533	0.0065	0.007
   197	65.9993	0.0065	0.007
   198	66.0691	0.0065	0.007
   199	66.1455	0.0065	0.007
   200	66.2618	0.0065	0.007
   201	66.4108	0.0065	0.007
   202	66.6557	0.0065	0.007
   203	67.0607	0.0065	0.007
   204	112.739	0.0065	0.007
   205	65.3458	0.0065	0.007
   206	65.3392	0.0065	0.007
   207	65.3353	0.0065	0.007
   208	65.3337	0.0065	0.007
   209	65.3173	0.0065	0.007
   210	65.3292	0.0065	0.007
   211	65.323	0.0065	0.007
   212	65.3217	0.0065	0.007
   213	65.3189	0.0065	0.007
   214	65.3139	0.0065	0.007
   215	65.316	0.0065	0.007
   216	65.3209	0.0065	0.007
   217	65.3123	0.0065	0.007
   218	65.3104	0.0065	0.007
   219	65.316	0.0065	0.007
   220	65.3157	0.0065	0.007
   221	65.3092	0.0065	0.007
   222	65.315	0.0065	0.007
   223	65.3129	0.0065	0.007
   224	65.3181	0.0065	0.007
   225	65.3186	0.0065	0.007
   226	65.3132	0.0065	0.007
   227	65.3306	0.0065	0.007
   228	65.3149	0.0065	0.007
   229	65.3199	0.0065	0.007
   230	65.3392	0.0065	0.007
   231	65.337	0.0065	0.007
   232	65.3357	0.0065	0.007
   233	65.3333	0.0065	0.007
   234	65.3392	0.0065	0.007
   235	65.3482	0.0065	0.007
   236	65.3626	0.0065	0.007
   237	65.3593	0.0065	0.007
   238	65.3706	0.0065	0.007
   239	65.3732	0.0065	0.007
   240	65.3854	0.0065	0.007
   241	65.3926	0.0065	0.007
   242	65.4125	0.0065	0.007
   243	65.4231	0.0065	0.007
   244	65.431	0.0065	0.007
   245	65.4555	0.0065	0.007
   246	65.4876	0.0065	0.007
   247	65.5103	0.0065	0.007
   248	65.5471	0.0065	0.007
   249	65.5879	0.0065	0.007
   250	65.6485	0.0065	0.007
   251	65.7091	0.0065	0.007
   252	65.8252	0.0065	0.007
   253	65.9598	0.0065	0.007
   254	66.2144	0.0065	0.007
   255	113.533	0.0065	0.007

Measurement: pout
  step	AVG(v(out)*i(rload))	FROM	TO
     1	63.258	0.0065	0.007
     2	63.2579	0.0065	0.007
     3	63.258	0.0065	0.007
     4	63.2581	0.0065	0.007
     5	63.2577	0.0065	0.007
     6	63.258	0.0065	0.007
     7	63.2579	0.0065	0.007
     8	63.2578	0.0065	0.007
     9	63.2578	0.0065	0.007
    10	63.2578	0.0065	0.007
    11	63.2578	0.0065	0.007
    12	63.2577	0.0065	0.007
    13	63.2577	0.0065	0.007
    14	63.2577	0.0065	0.007
    15	63.2574	0.0065	0.007
    16	63.2576	0.0065	0.007
    17	63.2579	0.0065	0.007
    18	63.2577	0.0065	0.007
    19	63.2577	0.0065	0.007
    20	63.2576	0.0065	0.007
    21	63.2579	0.0065	0.007
    22	63.2575	0.0065	0.007
    23	63.2576	0.0065	0.007
    24	63.2577	0.0065	0.007
    25	63.2577	0.0065	0.007
    26	63.2575	0.0065	0.007
    27	63.2575	0.0065	0.007
    28	63.2574	0.0065	0.007
    29	63.2573	0.0065	0.007
    30	63.2573	0.0065	0.007
    31	63.2574	0.0065	0.007
    32	63.2573	0.0065	0.007
    33	63.257	0.0065	0.007
    34	63.257	0.0065	0.007
    35	63.2571	0.0065	0.007
    36	63.2571	0.0065	0.007
    37	63.2572	0.0065	0.007
    38	63.2571	0.0065	0.007
    39	63.2572	0.0065	0.007
    40	63.257	0.0065	0.007
    41	63.257	0.0065	0.007
    42	63.257	0.0065	0.007
    43	63.2565	0.0065	0.007
    44	63.2565	0.0065	0.007
    45	63.2563	0.0065	0.007
    46	63.2561	0.0065	0.007
    47	63.2557	0.0065	0.007
    48	63.2549	0.0065	0.007
    49	63.2546	0.0065	0.007
    50	54.0493	0.0065	0.007
    51	10.7454	0.0065	0.007
    52	63.2575	0.0065	0.007
    53	63.2575	0.0065	0.007
    54	63.2574	0.0065	0.007
    55	63.2574	0.0065	0.007
    56	63.2574	0.0065	0.007
    57	63.2574	0.0065	0.007
    58	63.2574	0.0065	0.007
    59	63.2574	0.0065	0.007
    60	63.2574	0.0065	0.007
    61	63.2574	0.0065	0.007
    62	63.2574	0.0065	0.007
    63	63.2575	0.0065	0.007
    64	63.2576	0.0065	0.007
    65	63.2573	0.0065	0.007
    66	63.2573	0.0065	0.007
    67	63.2572	0.0065	0.007
    68	63.2572	0.0065	0.007
    69	63.2572	0.0065	0.007
    70	63.2573	0.0065	0.007
    71	63.2571	0.0065	0.007
    72	63.2573	0.0065	0.007
    73	63.2571	0.0065	0.007
    74	63.2572	0.0065	0.007
    75	63.2572	0.0065	0.007
    76	63.2573	0.0065	0.007
    77	63.2573	0.0065	0.007
    78	63.257	0.0065	0.007
    79	63.2571	0.0065	0.007
    80	63.257	0.0065	0.007
    81	63.2573	0.0065	0.007
    82	63.2571	0.0065	0.007
    83	63.257	0.0065	0.007
    84	63.2569	0.0065	0.007
    85	63.257	0.0065	0.007
    86	63.2568	0.0065	0.007
    87	63.2569	0.0065	0.007
    88	63.257	0.0065	0.007
    89	63.2568	0.0065	0.007
    90	63.2569	0.0065	0.007
    91	63.2567	0.0065	0.007
    92	63.2566	0.0065	0.007
    93	63.2565	0.0065	0.007
    94	63.2564	0.0065	0.007
    95	63.2565	0.0065	0.007
    96	63.2563	0.0065	0.007
    97	63.256	0.0065	0.007
    98	63.2559	0.0065	0.007
    99	63.2555	0.0065	0.007
   100	63.2551	0.0065	0.007
   101	63.2542	0.0065	0.007
   102	10.735	0.0065	0.007
   103	63.2556	0.0065	0.007
   104	63.2556	0.0065	0.007
   105	63.2554	0.0065	0.007
   106	63.2557	0.0065	0.007
   107	63.2557	0.0065	0.007
   108	63.2555	0.0065	0.007
   109	63.2557	0.0065	0.007
   110	63.2556	0.0065	0.007
   111	63.2556	0.0065	0.007
   112	63.2554	0.0065	0.007
   113	63.2555	0.0065	0.007
   114	63.2557	0.0065	0.007
   115	63.2554	0.0065	0.007
   116	63.2556	0.0065	0.007
   117	63.2557	0.0065	0.007
   118	63.2555	0.0065	0.007
   119	63.2554	0.0065	0.007
   120	63.2554	0.0065	0.007
   121	63.2554	0.0065	0.007
   122	63.2555	0.0065	0.007
   123	63.2554	0.0065	0.007
   124	63.2555	0.0065	0.007
   125	63.2553	0.0065	0.007
   126	63.2555	0.0065	0.007
   127	63.2555	0.0065	0.007
   128	63.2553	0.0065	0.007
   129	63.2553	0.0065	0.007
   130	63.2552	0.0065	0.007
   131	63.2552	0.0065	0.007
   132	63.2554	0.0065	0.007
   133	63.2552	0.0065	0.007
   134	63.2553	0.0065	0.007
   135	63.2555	0.0065	0.007
   136	63.2552	0.0065	0.007
   137	63.2555	0.0065	0.007
   138	63.2553	0.0065	0.007
   139	63.2555	0.0065	0.007
   140	63.2554	0.0065	0.007
   141	63.2555	0.0065	0.007
   142	63.2553	0.0065	0.007
   143	63.2552	0.0065	0.007
   144	63.2551	0.0065	0.007
   145	63.2552	0.0065	0.007
   146	63.2546	0.0065	0.007
   147	63.2547	0.0065	0.007
   148	63.2546	0.0065	0.007
   149	63.2544	0.0065	0.007
   150	63.2544	0.0065	0.007
   151	63.2543	0.0065	0.007
   152	63.2539	0.0065	0.007
   153	10.7263	0.0065	0.007
   154	63.2542	0.0065	0.007
   155	63.2541	0.0065	0.007
   156	63.254	0.0065	0.007
   157	63.2542	0.0065	0.007
   158	63.2538	0.0065	0.007
   159	63.2541	0.0065	0.007
   160	63.2541	0.0065	0.007
   161	63.254	0.0065	0.007
   162	63.2541	0.0065	0.007
   163	63.2538	0.0065	0.007
   164	63.2539	0.0065	0.007
   165	63.2538	0.0065	0.007
   166	63.254	0.0065	0.007
   167	63.2539	0.0065	0.007
   168	63.2539	0.0065	0.007
   169	63.2539	0.0065	0.007
   170	63.2541	0.0065	0.007
   171	63.2538	0.0065	0.007
   172	63.2537	0.0065	0.007
   173	63.2539	0.0065	0.007
   174	63.2537	0.0065	0.007
   175	63.254	0.0065	0.007
   176	63.2538	0.0065	0.007
   177	63.2537	0.0065	0.007
   178	63.254	0.0065	0.007
   179	63.2537	0.0065	0.007
   180	63.2538	0.0065	0.007
   181	63.2536	0.0065	0.007
   182	63.254	0.0065	0.007
   183	63.2537	0.0065	0.007
   184	63.2539	0.0065	0.007
   185	63.2539	0.0065	0.007
   186	63.2537	0.0065	0.007
   187	63.254	0.0065	0.007
   188	63.254	0.0065	0.007
   189	63.2538	0.0065	0.007
   190	63.2539	0.0065	0.007
   191	63.2535	0.0065	0.007
   192	63.2535	0.0065	0.007
   193	63.2536	0.0065	0.007
   194	63.2534	0.0065	0.007
   195	63.2534	0.0065	0.007
   196	63.2532	0.0065	0.007
   197	63.2534	0.0065	0.007
   198	63.253	0.0065	0.007
   199	63.2533	0.0065	0.007
   200	63.253	0.0065	0.007
   201	63.253	0.0065	0.007
   202	63.2528	0.0065	0.007
   203	63.2525	0.0065	0.007
   204	10.7243	0.0065	0.007
   205	63.2554	0.0065	0.007
   206	63.2554	0.0065	0.007
   207	63.2554	0.0065	0.007
   208	63.2556	0.0065	0.007
   209	63.2553	0.0065	0.007
   210	63.2557	0.0065	0.007
   211	63.2555	0.0065	0.007
   212	63.2552	0.0065	0.007
   213	63.2555	0.0065	0.007
   214	63.2552	0.0065	0.007
   215	63.2548	0.0065	0.007
   216	63.2552	0.0065	0.007
   217	63.2552	0.0065	0.007
   218	63.2549	0.0065	0.007
   219	63.2551	0.0065	0.007
   220	63.2555	0.0065	0.007
   221	63.2554	0.0065	0.007
   222	63.2551	0.0065	0.007
   223	63.2553	0.0065	0.007
   224	63.2549	0.0065	0.007
   225	63.2549	0.0065	0.007
   226	63.2557	0.0065	0.007
   227	63.2553	0.0065	0.007
   228	63.2554	0.0065	0.007
   229	63.2555	0.0065	0.007
   230	63.2553	0.0065	0.007
   231	63.2555	0.0065	0.007
   232	63.2553	0.0065	0.007
   233	63.2554	0.0065	0.007
   234	63.2553	0.0065	0.007
   235	63.2549	0.0065	0.007
   236	63.255	0.0065	0.007
   237	63.2554	0.0065	0.007
   238	63.2551	0.0065	0.007
   239	63.2552	0.0065	0.007
   240	63.255	0.0065	0.007
   241	63.255	0.0065	0.007
   242	63.255	0.0065	0.007
   243	63.2551	0.0065	0.007
   244	63.2549	0.0065	0.007
   245	63.2549	0.0065	0.007
   246	63.2546	0.0065	0.007
   247	63.2553	0.0065	0.007
   248	63.2551	0.0065	0.007
   249	63.2546	0.0065	0.007
   250	63.2546	0.0065	0.007
   251	63.2545	0.0065	0.007
   252	63.2544	0.0065	0.007
   253	63.2546	0.0065	0.007
   254	63.2543	0.0065	0.007
   255	10.7219	0.0065	0.007

Measurement: eff
  step	pout/pin
     1	0.944308
     2	0.944526
     3	0.944727
     4	0.944914
     5	0.945126
     6	0.945178
     7	0.94543
     8	0.945216
     9	0.945328
    10	0.945425
    11	0.945404
    12	0.945572
    13	0.945623
    14	0.945664
    15	0.945553
    16	0.945564
    17	0.945615
    18	0.945619
    19	0.945549
    20	0.945487
    21	0.945417
    22	0.94523
    23	0.945111
    24	0.94494
    25	0.94486
    26	0.944673
    27	0.944455
    28	0.944149
    29	0.943894
    30	0.943693
    31	0.943459
    32	0.943062
    33	0.942564
    34	0.942192
    35	0.941665
    36	0.941068
    37	0.940392
    38	0.939427
    39	0.938663
    40	0.937637
    41	0.93633
    42	0.934847
    43	0.932873
    44	0.93051
    45	0.927419
    46	0.923395
    47	0.917707
    48	0.909458
    49	0.895593
    50	0.414115
    51	0.0985271
    52	0.951688
    53	0.95185
    54	0.951895
    55	0.952171
    56	0.952306
    57	0.952325
    58	0.952505
    59	0.952553
    60	0.952621
    61	0.952603
    62	0.952707
    63	0.952755
    64	0.952845
    65	0.952756
    66	0.95272
    67	0.952712
    68	0.952756
    69	0.952677
    70	0.952679
    71	0.952588
    72	0.952617
    73	0.952442
    74	0.952381
    75	0.952308
    76	0.952193
    77	0.952128
    78	0.951927
    79	0.951722
    80	0.951563
    81	0.951375
    82	0.951204
    83	0.950836
    84	0.950493
    85	0.950212
    86	0.949771
    87	0.949404
    88	0.948855
    89	0.948288
    90	0.947647
    91	0.946738
    92	0.945838
    93	0.944659
    94	0.94323
    95	0.941514
    96	0.939289
    97	0.936373
    98	0.932436
    99	0.926522
   100	0.917168
   101	0.899316
   102	0.097315
   103	0.960865
   104	0.960902
   105	0.960965
   106	0.961159
   107	0.961215
   108	0.961144
   109	0.961302
   110	0.961305
   111	0.961391
   112	0.961332
   113	0.961411
   114	0.961486
   115	0.961382
   116	0.961561
   117	0.961507
   118	0.961502
   119	0.961535
   120	0.961458
   121	0.96147
   122	0.961437
   123	0.961472
   124	0.961326
   125	0.961326
   126	0.961353
   127	0.961263
   128	0.961156
   129	0.961024
   130	0.960936
   131	0.960826
   132	0.960767
   133	0.960665
   134	0.960435
   135	0.960331
   136	0.960053
   137	0.959875
   138	0.959682
   139	0.959377
   140	0.958998
   141	0.958584
   142	0.9582
   143	0.957675
   144	0.957146
   145	0.956314
   146	0.955216
   147	0.954117
   148	0.952545
   149	0.950487
   150	0.94754
   151	0.942892
   152	0.934996
   153	0.0956382
   154	0.962711
   155	0.962696
   156	0.962857
   157	0.96293
   158	0.962958
   159	0.963072
   160	0.963077
   161	0.963144
   162	0.963081
   163	0.963157
   164	0.963119
   165	0.963306
   166	0.963317
   167	0.963208
   168	0.963222
   169	0.963187
   170	0.963271
   171	0.963278
   172	0.963186
   173	0.963177
   174	0.963187
   175	0.963205
   176	0.963085
   177	0.963069
   178	0.963126
   179	0.962904
   180	0.962768
   181	0.962827
   182	0.962801
   183	0.962617
   184	0.962601
   185	0.962391
   186	0.962266
   187	0.962238
   188	0.961916
   189	0.961723
   190	0.961534
   191	0.96134
   192	0.960973
   193	0.96065
   194	0.960194
   195	0.959687
   196	0.959059
   197	0.958394
   198	0.957377
   199	0.956274
   200	0.954592
   201	0.952452
   202	0.948949
   203	0.943212
   204	0.0951248
   205	0.968011
   206	0.968108
   207	0.968166
   208	0.968193
   209	0.968431
   210	0.968259
   211	0.96835
   212	0.968364
   213	0.968411
   214	0.96848
   215	0.968442
   216	0.968376
   217	0.968503
   218	0.968528
   219	0.968447
   220	0.968458
   221	0.968552
   222	0.968462
   223	0.968496
   224	0.968414
   225	0.968405
   226	0.968497
   227	0.968235
   228	0.968467
   229	0.968394
   230	0.968106
   231	0.968142
   232	0.968159
   233	0.968196
   234	0.968107
   235	0.967967
   236	0.967755
   237	0.96781
   238	0.96764
   239	0.967601
   240	0.967418
   241	0.96731
   242	0.967016
   243	0.966862
   244	0.966743
   245	0.966379
   246	0.965902
   247	0.965578
   248	0.965034
   249	0.964425
   250	0.963534
   251	0.962644
   252	0.960946
   253	0.958986
   254	0.955294
   255	0.0944386

Measurement: t_period
  step	t2-t1
     1	4.89864e-006
     2	4.90713e-006
     3	4.9045e-006
     4	4.91213e-006
     5	4.90634e-006
     6	4.90285e-006
     7	4.9138e-006
     8	4.91083e-006
     9	4.90857e-006
    10	4.90519e-006
    11	4.90858e-006
    12	4.91587e-006
    13	4.90448e-006
    14	4.90714e-006
    15	4.91063e-006
    16	4.90568e-006
    17	4.90351e-006
    18	4.90206e-006
    19	4.91012e-006
    20	4.90916e-006
    21	4.90631e-006
    22	4.90981e-006
    23	4.90457e-006
    24	4.90741e-006
    25	4.90658e-006
    26	4.90523e-006
    27	4.91345e-006
    28	4.90258e-006
    29	4.91089e-006
    30	4.91634e-006
    31	4.90452e-006
    32	4.90941e-006
    33	4.90691e-006
    34	4.90569e-006
    35	4.9148e-006
    36	4.89967e-006
    37	4.9119e-006
    38	4.90934e-006
    39	4.90594e-006
    40	4.90375e-006
    41	4.90385e-006
    42	4.90582e-006
    43	4.91608e-006
    44	4.89153e-006
    45	4.92258e-006
    46	4.90822e-006
    47	4.90468e-006
    48	4.91486e-006
    49	4.90569e-006
    50	4.90977e-006
    51	4.90592e-006
    52	6.33845e-006
    53	6.33837e-006
    54	6.33282e-006
    55	6.33861e-006
    56	6.33509e-006
    57	6.33647e-006
    58	6.33169e-006
    59	6.33421e-006
    60	6.33901e-006
    61	6.33956e-006
    62	6.33207e-006
    63	6.33178e-006
    64	6.33641e-006
    65	6.33426e-006
    66	6.33704e-006
    67	6.33636e-006
    68	6.33686e-006
    69	6.33287e-006
    70	6.33743e-006
    71	6.33258e-006
    72	6.33709e-006
    73	6.33132e-006
    74	6.33386e-006
    75	6.33774e-006
    76	6.33995e-006
    77	6.33747e-006
    78	6.33553e-006
    79	6.33632e-006
    80	6.3402e-006
    81	6.33338e-006
    82	6.33975e-006
    83	6.33326e-006
    84	6.33683e-006
    85	6.33981e-006
    86	6.33896e-006
    87	6.33999e-006
    88	6.33118e-006
    89	6.33906e-006
    90	6.33687e-006
    91	6.33035e-006
    92	6.33803e-006
    93	6.33601e-006
    94	6.3318e-006
    95	6.33511e-006
    96	6.3366e-006
    97	6.34195e-006
    98	6.33649e-006
    99	6.33448e-006
   100	6.33755e-006
   101	6.33756e-006
   102	6.33678e-006
   103	1.02166e-005
   104	1.02127e-005
   105	1.02178e-005
   106	1.02127e-005
   107	1.0221e-005
   108	1.02046e-005
   109	1.0216e-005
   110	1.02184e-005
   111	1.02159e-005
   112	1.0223e-005
   113	1.02228e-005
   114	1.02134e-005
   115	1.02299e-005
   116	1.02272e-005
   117	1.0214e-005
   118	1.02172e-005
   119	1.02225e-005
   120	1.02166e-005
   121	1.0216e-005
   122	1.02187e-005
   123	1.02141e-005
   124	1.02196e-005
   125	1.02213e-005
   126	1.02191e-005
   127	1.02138e-005
   128	1.02198e-005
   129	1.02208e-005
   130	1.02199e-005
   131	1.02154e-005
   132	1.0217e-005
   133	1.02206e-005
   134	1.0214e-005
   135	1.02176e-005
   136	1.02186e-005
   137	1.02146e-005
   138	1.02252e-005
   139	1.02152e-005
   140	1.02152e-005
   141	1.02161e-005
   142	1.02153e-005
   143	1.02106e-005
   144	1.02233e-005
   145	1.02155e-005
   146	1.02145e-005
   147	1.02144e-005
   148	1.02124e-005
   149	1.0211e-005
   150	1.02167e-005
   151	1.02178e-005
   152	1.02156e-005
   153	1.02172e-005
   154	1.22583e-005
   155	1.22586e-005
   156	1.22619e-005
   157	1.22651e-005
   158	1.22601e-005
   159	1.2257e-005
   160	1.22555e-005
   161	1.22639e-005
   162	1.22575e-005
   163	1.22544e-005
   164	1.22581e-005
   165	1.22499e-005
   166	1.22645e-005
   167	1.226e-005
   168	1.22586e-005
   169	1.22641e-005
   170	1.22578e-005
   171	1.22685e-005
   172	1.22539e-005
   173	1.2258e-005
   174	1.22713e-005
   175	1.22659e-005
   176	1.22567e-005
   177	1.22656e-005
   178	1.22579e-005
   179	1.2261e-005
   180	1.225e-005
   181	1.22563e-005
   182	1.2259e-005
   183	1.22698e-005
   184	1.22595e-005
   185	1.22521e-005
   186	1.22656e-005
   187	1.22608e-005
   188	1.22511e-005
   189	1.22628e-005
   190	1.22616e-005
   191	1.22683e-005
   192	1.2262e-005
   193	1.22593e-005
   194	1.22521e-005
   195	1.22609e-005
   196	1.22583e-005
   197	1.22537e-005
   198	1.22528e-005
   199	1.22537e-005
   200	1.22615e-005
   201	1.22623e-005
   202	1.22569e-005
   203	1.22664e-005
   204	1.22588e-005
   205	1.63479e-005
   206	1.63408e-005
   207	1.63456e-005
   208	1.63438e-005
   209	1.63477e-005
   210	1.6352e-005
   211	1.63435e-005
   212	1.63446e-005
   213	1.63436e-005
   214	1.63454e-005
   215	1.63448e-005
   216	1.63288e-005
   217	1.63451e-005
   218	1.63492e-005
   219	1.63434e-005
   220	1.63528e-005
   221	1.63522e-005
   222	1.63367e-005
   223	1.63435e-005
   224	1.63469e-005
   225	1.63459e-005
   226	1.63522e-005
   227	1.63334e-005
   228	1.63477e-005
   229	1.63414e-005
   230	1.63326e-005
   231	1.63324e-005
   232	1.63437e-005
   233	1.63437e-005
   234	1.63454e-005
   235	1.63415e-005
   236	1.63481e-005
   237	1.63416e-005
   238	1.63521e-005
   239	1.63401e-005
   240	1.63395e-005
   241	1.63389e-005
   242	1.63439e-005
   243	1.63454e-005
   244	1.63443e-005
   245	1.6349e-005
   246	1.63349e-005
   247	1.63494e-005
   248	1.63499e-005
   249	1.63474e-005
   250	1.63504e-005
   251	1.63477e-005
   252	1.63362e-005
   253	1.63425e-005
   254	1.63481e-005
   255	1.6342e-005

Measurement: vgmax
  step	MAX(v(vgate))	FROM	TO
     1	7.01479	0	0.007
     2	7.01479	0	0.007
     3	7.01479	0	0.007
     4	7.01477	0	0.007
     5	7.01477	0	0.007
     6	7.01479	0	0.007
     7	7.0148	0	0.007
     8	7.0148	0	0.007
     9	7.01478	0	0.007
    10	7.01479	0	0.007
    11	7.01479	0	0.007
    12	7.01479	0	0.007
    13	7.01477	0	0.007
    14	7.01478	0	0.007
    15	7.01476	0	0.007
    16	7.01472	0	0.007
    17	7.01471	0	0.007
    18	7.01467	0	0.007
    19	7.01466	0	0.007
    20	7.01464	0	0.007
    21	7.01462	0	0.007
    22	7.01457	0	0.007
    23	7.01461	0	0.007
    24	7.01456	0	0.007
    25	7.01456	0	0.007
    26	7.01458	0	0.007
    27	7.01462	0	0.007
    28	7.01463	0	0.007
    29	7.01464	0	0.007
    30	7.01464	0	0.007
    31	7.01464	0	0.007
    32	7.01458	0	0.007
    33	7.01443	0	0.007
    34	7.0144	0	0.007
    35	7.01449	0	0.007
    36	7.01446	0	0.007
    37	7.01435	0	0.007
    38	7.01442	0	0.007
    39	7.01422	0	0.007
    40	7.01429	0	0.007
    41	7.01429	0	0.007
    42	7.01419	0	0.007
    43	7.01408	0	0.007
    44	7.01367	0	0.007
    45	7.01359	0	0.007
    46	7.01352	0	0.007
    47	7.01352	0	0.007
    48	7.01567	0	0.007
    49	7.01708	0	0.007
    50	7.02429	0	0.007
    51	7.02655	0	0.007
    52	7.01856	0	0.007
    53	7.0186	0	0.007
    54	7.01855	0	0.007
    55	7.01857	0	0.007
    56	7.01853	0	0.007
    57	7.01858	0	0.007
    58	7.01859	0	0.007
    59	7.01856	0	0.007
    60	7.01856	0	0.007
    61	7.01857	0	0.007
    62	7.0186	0	0.007
    63	7.01861	0	0.007
    64	7.01861	0	0.007
    65	7.01862	0	0.007
    66	7.01862	0	0.007
    67	7.01864	0	0.007
    68	7.01866	0	0.007
    69	7.01869	0	0.007
    70	7.0187	0	0.007
    71	7.01871	0	0.007
    72	7.01876	0	0.007
    73	7.01882	0	0.007
    74	7.01886	0	0.007
    75	7.01892	0	0.007
    76	7.01896	0	0.007
    77	7.01897	0	0.007
    78	7.019	0	0.007
    79	7.01906	0	0.007
    80	7.0191	0	0.007
    81	7.01914	0	0.007
    82	7.01916	0	0.007
    83	7.01913	0	0.007
    84	7.01914	0	0.007
    85	7.01913	0	0.007
    86	7.01902	0	0.007
    87	7.01893	0	0.007
    88	7.01905	0	0.007
    89	7.01913	0	0.007
    90	7.01903	0	0.007
    91	7.01905	0	0.007
    92	7.01907	0	0.007
    93	7.01903	0	0.007
    94	7.01911	0	0.007
    95	7.01909	0	0.007
    96	7.01882	0	0.007
    97	7.01864	0	0.007
    98	7.01827	0	0.007
    99	7.01956	0	0.007
   100	7.0202	0	0.007
   101	7.03271	0	0.007
   102	7.03184	0	0.007
   103	7.02644	0	0.007
   104	7.02646	0	0.007
   105	7.02647	0	0.007
   106	7.02646	0	0.007
   107	7.02648	0	0.007
   108	7.0265	0	0.007
   109	7.02649	0	0.007
   110	7.02649	0	0.007
   111	7.0265	0	0.007
   112	7.0265	0	0.007
   113	7.02653	0	0.007
   114	7.02652	0	0.007
   115	7.02657	0	0.007
   116	7.02653	0	0.007
   117	7.02656	0	0.007
   118	7.02653	0	0.007
   119	7.02655	0	0.007
   120	7.02655	0	0.007
   121	7.02654	0	0.007
   122	7.02653	0	0.007
   123	7.02652	0	0.007
   124	7.02648	0	0.007
   125	7.02648	0	0.007
   126	7.02643	0	0.007
   127	7.02641	0	0.007
   128	7.02631	0	0.007
   129	7.02619	0	0.007
   130	7.02612	0	0.007
   131	7.02604	0	0.007
   132	7.02584	0	0.007
   133	7.02572	0	0.007
   134	7.02566	0	0.007
   135	7.02555	0	0.007
   136	7.02544	0	0.007
   137	7.02544	0	0.007
   138	7.02543	0	0.007
   139	7.02541	0	0.007
   140	7.02539	0	0.007
   141	7.02543	0	0.007
   142	7.02558	0	0.007
   143	7.02618	0	0.007
   144	7.0255	0	0.007
   145	7.02543	0	0.007
   146	7.02543	0	0.007
   147	7.02545	0	0.007
   148	7.02546	0	0.007
   149	7.02546	0	0.007
   150	7.02553	0	0.007
   151	7.02825	0	0.007
   152	7.05349	0	0.007
   153	7.03444	0	0.007
   154	7.02818	0	0.007
   155	7.02801	0	0.007
   156	7.028	0	0.007
   157	7.02795	0	0.007
   158	7.02782	0	0.007
   159	7.02786	0	0.007
   160	7.02782	0	0.007
   161	7.0278	0	0.007
   162	7.02778	0	0.007
   163	7.02775	0	0.007
   164	7.02774	0	0.007
   165	7.02775	0	0.007
   166	7.0277	0	0.007
   167	7.02769	0	0.007
   168	7.02768	0	0.007
   169	7.02769	0	0.007
   170	7.02769	0	0.007
   171	7.02768	0	0.007
   172	7.02769	0	0.007
   173	7.02768	0	0.007
   174	7.02769	0	0.007
   175	7.02769	0	0.007
   176	7.02769	0	0.007
   177	7.0277	0	0.007
   178	7.02769	0	0.007
   179	7.02769	0	0.007
   180	7.0277	0	0.007
   181	7.0277	0	0.007
   182	7.0277	0	0.007
   183	7.0277	0	0.007
   184	7.0277	0	0.007
   185	7.02772	0	0.007
   186	7.02776	0	0.007
   187	7.02781	0	0.007
   188	7.02788	0	0.007
   189	7.02798	0	0.007
   190	7.02804	0	0.007
   191	7.02795	0	0.007
   192	7.0279	0	0.007
   193	7.02892	0	0.007
   194	7.02813	0	0.007
   195	7.02792	0	0.007
   196	7.02797	0	0.007
   197	7.02841	0	0.007
   198	7.02795	0	0.007
   199	7.02786	0	0.007
   200	7.02785	0	0.007
   201	7.02808	0	0.007
   202	7.03398	0	0.007
   203	7.06089	0	0.007
   204	7.03574	0	0.007
   205	7.03107	0	0.007
   206	7.03105	0	0.007
   207	7.03109	0	0.007
   208	7.03106	0	0.007
   209	7.03104	0	0.007
   210	7.03104	0	0.007
   211	7.03107	0	0.007
   212	7.03105	0	0.007
   213	7.03107	0	0.007
   214	7.03106	0	0.007
   215	7.03107	0	0.007
   216	7.03108	0	0.007
   217	7.03109	0	0.007
   218	7.03109	0	0.007
   219	7.03111	0	0.007
   220	7.03113	0	0.007
   221	7.03114	0	0.007
   222	7.03113	0	0.007
   223	7.0312	0	0.007
   224	7.03127	0	0.007
   225	7.0313	0	0.007
   226	7.03126	0	0.007
   227	7.03136	0	0.007
   228	7.03153	0	0.007
   229	7.03176	0	0.007
   230	7.0319	0	0.007
   231	7.03201	0	0.007
   232	7.03215	0	0.007
   233	7.0322	0	0.007
   234	7.03227	0	0.007
   235	7.03217	0	0.007
   236	7.03199	0	0.007
   237	7.03177	0	0.007
   238	7.03158	0	0.007
   239	7.03129	0	0.007
   240	7.0313	0	0.007
   241	7.03124	0	0.007
   242	7.03151	0	0.007
   243	7.03152	0	0.007
   244	7.03201	0	0.007
   245	7.03234	0	0.007
   246	7.0321	0	0.007
   247	7.03184	0	0.007
   248	7.03166	0	0.007
   249	7.03233	0	0.007
   250	7.03139	0	0.007
   251	7.03178	0	0.007
   252	7.03183	0	0.007
   253	7.04142	0	0.007
   254	7.08185	0	0.007
   255	7.03803	0	0.007

Measurement: t1
  step	time	at
     1	0.0065022	0.0065022
     2	0.00650226	0.00650226
     3	0.00650203	0.00650203
     4	0.00650216	0.00650216
     5	0.00650211	0.00650211
     6	0.00650157	0.00650157
     7	0.0065018	0.0065018
     8	0.00650195	0.00650195
     9	0.00650203	0.00650203
    10	0.00650159	0.00650159
    11	0.00650203	0.00650203
    12	0.00650206	0.00650206
    13	0.00650187	0.00650187
    14	0.0065021	0.0065021
    15	0.00650164	0.00650164
    16	0.00650171	0.00650171
    17	0.00650192	0.00650192
    18	0.00650185	0.00650185
    19	0.00650201	0.00650201
    20	0.0065018	0.0065018
    21	0.00650209	0.00650209
    22	0.00650202	0.00650202
    23	0.00650184	0.00650184
    24	0.00650214	0.00650214
    25	0.00650189	0.00650189
    26	0.00650211	0.00650211
    27	0.00650209	0.00650209
    28	0.00650212	0.00650212
    29	0.00650246	0.00650246
    30	0.00650205	0.00650205
    31	0.00650193	0.00650193
    32	0.00650196	0.00650196
    33	0.00650199	0.00650199
    34	0.00650195	0.00650195
    35	0.0065018	0.0065018
    36	0.00650184	0.00650184
    37	0.00650186	0.00650186
    38	0.00650191	0.00650191
    39	0.00650185	0.00650185
    40	0.00650214	0.00650214
    41	0.00650197	0.00650197
    42	0.00650192	0.00650192
    43	0.00650189	0.00650189
    44	0.00650179	0.00650179
    45	0.00650183	0.00650183
    46	0.00650201	0.00650201
    47	0.006502	0.006502
    48	0.00650207	0.00650207
    49	0.00650209	0.00650209
    50	0.00650299	0.00650299
    51	0.00650362	0.00650362
    52	0.00650015	0.00650015
    53	0.00650026	0.00650026
    54	0.00650013	0.00650013
    55	0.00650018	0.00650018
    56	0.00650029	0.00650029
    57	0.00650005	0.00650005
    58	0.00650022	0.00650022
    59	0.00650026	0.00650026
    60	0.00650009	0.00650009
    61	0.00650008	0.00650008
    62	0.00650023	0.00650023
    63	0.00650034	0.00650034
    64	0.00650023	0.00650023
    65	0.00650033	0.00650033
    66	0.00650026	0.00650026
    67	0.00650036	0.00650036
    68	0.00650019	0.00650019
    69	0.00650033	0.00650033
    70	0.00650026	0.00650026
    71	0.00650019	0.00650019
    72	0.00650029	0.00650029
    73	0.0065003	0.0065003
    74	0.00650037	0.00650037
    75	0.00650028	0.00650028
    76	0.00650035	0.00650035
    77	0.00650036	0.00650036
    78	0.00650018	0.00650018
    79	0.00650035	0.00650035
    80	0.00650026	0.00650026
    81	0.00650025	0.00650025
    82	0.00650033	0.00650033
    83	0.00650028	0.00650028
    84	0.00650023	0.00650023
    85	0.00650037	0.00650037
    86	0.00650037	0.00650037
    87	0.00650021	0.00650021
    88	0.00650031	0.00650031
    89	0.00650026	0.00650026
    90	0.00650041	0.00650041
    91	0.00650033	0.00650033
    92	0.00650024	0.00650024
    93	0.00650047	0.00650047
    94	0.00650034	0.00650034
    95	0.00650042	0.00650042
    96	0.00650044	0.00650044
    97	0.00650054	0.00650054
    98	0.00650049	0.00650049
    99	0.00650034	0.00650034
   100	0.00650037	0.00650037
   101	0.00650049	0.00650049
   102	0.00650291	0.00650291
   103	0.00650558	0.00650558
   104	0.00650563	0.00650563
   105	0.00650552	0.00650552
   106	0.00650562	0.00650562
   107	0.00650556	0.00650556
   108	0.00650561	0.00650561
   109	0.00650563	0.00650563
   110	0.00650575	0.00650575
   111	0.00650563	0.00650563
   112	0.00650565	0.00650565
   113	0.0065055	0.0065055
   114	0.00650567	0.00650567
   115	0.00650557	0.00650557
   116	0.00650573	0.00650573
   117	0.00650575	0.00650575
   118	0.0065057	0.0065057
   119	0.00650557	0.00650557
   120	0.00650571	0.00650571
   121	0.00650567	0.00650567
   122	0.00650572	0.00650572
   123	0.0065058	0.0065058
   124	0.00650576	0.00650576
   125	0.00650571	0.00650571
   126	0.00650575	0.00650575
   127	0.00650584	0.00650584
   128	0.00650571	0.00650571
   129	0.00650569	0.00650569
   130	0.00650569	0.00650569
   131	0.00650587	0.00650587
   132	0.00650558	0.00650558
   133	0.00650572	0.00650572
   134	0.00650003	0.00650003
   135	0.00650579	0.00650579
   136	0.00650583	0.00650583
   137	0.0065058	0.0065058
   138	0.00650579	0.00650579
   139	0.00650573	0.00650573
   140	0.00650567	0.00650567
   141	0.00650573	0.00650573
   142	0.00650585	0.00650585
   143	0.00650593	0.00650593
   144	0.00650577	0.00650577
   145	0.0065059	0.0065059
   146	0.00650586	0.00650586
   147	0.00650581	0.00650581
   148	0.0065058	0.0065058
   149	0.00650583	0.00650583
   150	0.00650583	0.00650583
   151	0.00650604	0.00650604
   152	0.00650591	0.00650591
   153	0.00650903	0.00650903
   154	0.00650626	0.00650626
   155	0.00650623	0.00650623
   156	0.00650631	0.00650631
   157	0.00650624	0.00650624
   158	0.00650619	0.00650619
   159	0.00650618	0.00650618
   160	0.00650619	0.00650619
   161	0.00650607	0.00650607
   162	0.0065061	0.0065061
   163	0.00650611	0.00650611
   164	0.00650608	0.00650608
   165	0.00650616	0.00650616
   166	0.00650617	0.00650617
   167	0.00650607	0.00650607
   168	0.00650604	0.00650604
   169	0.00650611	0.00650611
   170	0.00650625	0.00650625
   171	0.00650608	0.00650608
   172	0.00650608	0.00650608
   173	0.0065061	0.0065061
   174	0.00650617	0.00650617
   175	0.0065061	0.0065061
   176	0.00650616	0.00650616
   177	0.00650625	0.00650625
   178	0.0065062	0.0065062
   179	0.00650618	0.00650618
   180	0.00650618	0.00650618
   181	0.00650621	0.00650621
   182	0.00650626	0.00650626
   183	0.0065062	0.0065062
   184	0.00650614	0.00650614
   185	0.00650622	0.00650622
   186	0.00650619	0.00650619
   187	0.00650627	0.00650627
   188	0.00650623	0.00650623
   189	0.00650611	0.00650611
   190	0.00650618	0.00650618
   191	0.00650616	0.00650616
   192	0.0065062	0.0065062
   193	0.00650621	0.00650621
   194	0.00650622	0.00650622
   195	0.00650624	0.00650624
   196	0.00650626	0.00650626
   197	0.00650631	0.00650631
   198	0.00650621	0.00650621
   199	0.00650622	0.00650622
   200	0.00650628	0.00650628
   201	0.00650631	0.00650631
   202	0.00650627	0.00650627
   203	0.00650633	0.00650633
   204	0.00651027	0.00651027
   205	0.00650676	0.00650676
   206	0.00650679	0.00650679
   207	0.00650673	0.00650673
   208	0.00650669	0.00650669
   209	0.00650671	0.00650671
   210	0.00650675	0.00650675
   211	0.00650671	0.00650671
   212	0.00650675	0.00650675
   213	0.00650676	0.00650676
   214	0.00650676	0.00650676
   215	0.00650684	0.00650684
   216	0.00650006	0.00650006
   217	0.00650683	0.00650683
   218	0.00650678	0.00650678
   219	0.00650004	0.00650004
   220	0.00650683	0.00650683
   221	0.0065	0.0065
   222	0.00650004	0.00650004
   223	0.00650678	0.00650678
   224	0.00650681	0.00650681
   225	0.00650005	0.00650005
   226	0.00650678	0.00650678
   227	0.00650005	0.00650005
   228	0.00650677	0.00650677
   229	0.00650681	0.00650681
   230	0.00650011	0.00650011
   231	0.00650009	0.00650009
   232	0.00650678	0.00650678
   233	0.0065067	0.0065067
   234	0.00650681	0.00650681
   235	0.00650002	0.00650002
   236	0.00650676	0.00650676
   237	0.00650677	0.00650677
   238	0.00650008	0.00650008
   239	0.00650678	0.00650678
   240	0.00650006	0.00650006
   241	0.0065068	0.0065068
   242	0.00650011	0.00650011
   243	0.00650009	0.00650009
   244	0.00650675	0.00650675
   245	0.00650676	0.00650676
   246	0.00650004	0.00650004
   247	0.00650672	0.00650672
   248	0.00650004	0.00650004
   249	0.00650002	0.00650002
   250	0.00650016	0.00650016
   251	0.00650003	0.00650003
   252	0.00650017	0.00650017
   253	0.0065001	0.0065001
   254	0.0065002	0.0065002
   255	0.00650554	0.00650554

Measurement: t2
  step	time	at
     1	0.0065071	0.0065071
     2	0.00650717	0.00650717
     3	0.00650693	0.00650693
     4	0.00650707	0.00650707
     5	0.00650702	0.00650702
     6	0.00650648	0.00650648
     7	0.00650672	0.00650672
     8	0.00650686	0.00650686
     9	0.00650694	0.00650694
    10	0.00650649	0.00650649
    11	0.00650694	0.00650694
    12	0.00650698	0.00650698
    13	0.00650678	0.00650678
    14	0.00650701	0.00650701
    15	0.00650655	0.00650655
    16	0.00650662	0.00650662
    17	0.00650682	0.00650682
    18	0.00650676	0.00650676
    19	0.00650692	0.00650692
    20	0.00650671	0.00650671
    21	0.006507	0.006507
    22	0.00650693	0.00650693
    23	0.00650675	0.00650675
    24	0.00650705	0.00650705
    25	0.0065068	0.0065068
    26	0.00650702	0.00650702
    27	0.00650701	0.00650701
    28	0.00650702	0.00650702
    29	0.00650737	0.00650737
    30	0.00650697	0.00650697
    31	0.00650684	0.00650684
    32	0.00650687	0.00650687
    33	0.00650689	0.00650689
    34	0.00650686	0.00650686
    35	0.00650671	0.00650671
    36	0.00650674	0.00650674
    37	0.00650677	0.00650677
    38	0.00650682	0.00650682
    39	0.00650676	0.00650676
    40	0.00650704	0.00650704
    41	0.00650688	0.00650688
    42	0.00650682	0.00650682
    43	0.0065068	0.0065068
    44	0.00650669	0.00650669
    45	0.00650675	0.00650675
    46	0.00650692	0.00650692
    47	0.0065069	0.0065069
    48	0.00650698	0.00650698
    49	0.006507	0.006507
    50	0.0065079	0.0065079
    51	0.00650853	0.00650853
    52	0.00650649	0.00650649
    53	0.0065066	0.0065066
    54	0.00650646	0.00650646
    55	0.00650652	0.00650652
    56	0.00650663	0.00650663
    57	0.00650639	0.00650639
    58	0.00650656	0.00650656
    59	0.00650659	0.00650659
    60	0.00650643	0.00650643
    61	0.00650642	0.00650642
    62	0.00650656	0.00650656
    63	0.00650667	0.00650667
    64	0.00650657	0.00650657
    65	0.00650667	0.00650667
    66	0.0065066	0.0065066
    67	0.00650669	0.00650669
    68	0.00650653	0.00650653
    69	0.00650666	0.00650666
    70	0.0065066	0.0065066
    71	0.00650653	0.00650653
    72	0.00650663	0.00650663
    73	0.00650663	0.00650663
    74	0.0065067	0.0065067
    75	0.00650661	0.00650661
    76	0.00650669	0.00650669
    77	0.0065067	0.0065067
    78	0.00650651	0.00650651
    79	0.00650669	0.00650669
    80	0.0065066	0.0065066
    81	0.00650659	0.00650659
    82	0.00650667	0.00650667
    83	0.00650661	0.00650661
    84	0.00650657	0.00650657
    85	0.00650671	0.00650671
    86	0.00650671	0.00650671
    87	0.00650655	0.00650655
    88	0.00650664	0.00650664
    89	0.0065066	0.0065066
    90	0.00650675	0.00650675
    91	0.00650666	0.00650666
    92	0.00650657	0.00650657
    93	0.00650681	0.00650681
    94	0.00650667	0.00650667
    95	0.00650676	0.00650676
    96	0.00650678	0.00650678
    97	0.00650688	0.00650688
    98	0.00650683	0.00650683
    99	0.00650667	0.00650667
   100	0.0065067	0.0065067
   101	0.00650683	0.00650683
   102	0.00650925	0.00650925
   103	0.0065158	0.0065158
   104	0.00651584	0.00651584
   105	0.00651574	0.00651574
   106	0.00651583	0.00651583
   107	0.00651578	0.00651578
   108	0.00651582	0.00651582
   109	0.00651585	0.00651585
   110	0.00651597	0.00651597
   111	0.00651584	0.00651584
   112	0.00651587	0.00651587
   113	0.00651572	0.00651572
   114	0.00651589	0.00651589
   115	0.0065158	0.0065158
   116	0.00651595	0.00651595
   117	0.00651596	0.00651596
   118	0.00651592	0.00651592
   119	0.00651579	0.00651579
   120	0.00651592	0.00651592
   121	0.00651589	0.00651589
   122	0.00651594	0.00651594
   123	0.00651601	0.00651601
   124	0.00651598	0.00651598
   125	0.00651593	0.00651593
   126	0.00651597	0.00651597
   127	0.00651605	0.00651605
   128	0.00651593	0.00651593
   129	0.00651592	0.00651592
   130	0.00651591	0.00651591
   131	0.00651608	0.00651608
   132	0.00651579	0.00651579
   133	0.00651594	0.00651594
   134	0.00651024	0.00651024
   135	0.00651601	0.00651601
   136	0.00651604	0.00651604
   137	0.00651602	0.00651602
   138	0.00651602	0.00651602
   139	0.00651594	0.00651594
   140	0.00651588	0.00651588
   141	0.00651594	0.00651594
   142	0.00651606	0.00651606
   143	0.00651614	0.00651614
   144	0.00651599	0.00651599
   145	0.00651611	0.00651611
   146	0.00651607	0.00651607
   147	0.00651602	0.00651602
   148	0.00651601	0.00651601
   149	0.00651604	0.00651604
   150	0.00651604	0.00651604
   151	0.00651626	0.00651626
   152	0.00651612	0.00651612
   153	0.00651925	0.00651925
   154	0.00651852	0.00651852
   155	0.00651849	0.00651849
   156	0.00651857	0.00651857
   157	0.0065185	0.0065185
   158	0.00651845	0.00651845
   159	0.00651844	0.00651844
   160	0.00651844	0.00651844
   161	0.00651833	0.00651833
   162	0.00651835	0.00651835
   163	0.00651836	0.00651836
   164	0.00651833	0.00651833
   165	0.00651841	0.00651841
   166	0.00651843	0.00651843
   167	0.00651833	0.00651833
   168	0.0065183	0.0065183
   169	0.00651838	0.00651838
   170	0.00651851	0.00651851
   171	0.00651835	0.00651835
   172	0.00651834	0.00651834
   173	0.00651836	0.00651836
   174	0.00651844	0.00651844
   175	0.00651837	0.00651837
   176	0.00651841	0.00651841
   177	0.00651851	0.00651851
   178	0.00651846	0.00651846
   179	0.00651844	0.00651844
   180	0.00651843	0.00651843
   181	0.00651847	0.00651847
   182	0.00651852	0.00651852
   183	0.00651847	0.00651847
   184	0.0065184	0.0065184
   185	0.00651847	0.00651847
   186	0.00651846	0.00651846
   187	0.00651853	0.00651853
   188	0.00651848	0.00651848
   189	0.00651837	0.00651837
   190	0.00651845	0.00651845
   191	0.00651843	0.00651843
   192	0.00651846	0.00651846
   193	0.00651847	0.00651847
   194	0.00651847	0.00651847
   195	0.0065185	0.0065185
   196	0.00651851	0.00651851
   197	0.00651856	0.00651856
   198	0.00651846	0.00651846
   199	0.00651848	0.00651848
   200	0.00651854	0.00651854
   201	0.00651857	0.00651857
   202	0.00651853	0.00651853
   203	0.00651859	0.00651859
   204	0.00652253	0.00652253
   205	0.0065231	0.0065231
   206	0.00652313	0.00652313
   207	0.00652308	0.00652308
   208	0.00652303	0.00652303
   209	0.00652306	0.00652306
   210	0.00652311	0.00652311
   211	0.00652305	0.00652305
   212	0.00652309	0.00652309
   213	0.0065231	0.0065231
   214	0.0065231	0.0065231
   215	0.00652319	0.00652319
   216	0.00651639	0.00651639
   217	0.00652317	0.00652317
   218	0.00652313	0.00652313
   219	0.00651639	0.00651639
   220	0.00652318	0.00652318
   221	0.00651635	0.00651635
   222	0.00651638	0.00651638
   223	0.00652312	0.00652312
   224	0.00652316	0.00652316
   225	0.00651639	0.00651639
   226	0.00652313	0.00652313
   227	0.00651638	0.00651638
   228	0.00652311	0.00652311
   229	0.00652315	0.00652315
   230	0.00651645	0.00651645
   231	0.00651642	0.00651642
   232	0.00652313	0.00652313
   233	0.00652305	0.00652305
   234	0.00652316	0.00652316
   235	0.00651636	0.00651636
   236	0.00652311	0.00652311
   237	0.00652312	0.00652312
   238	0.00651644	0.00651644
   239	0.00652312	0.00652312
   240	0.0065164	0.0065164
   241	0.00652314	0.00652314
   242	0.00651645	0.00651645
   243	0.00651644	0.00651644
   244	0.00652309	0.00652309
   245	0.00652311	0.00652311
   246	0.00651637	0.00651637
   247	0.00652307	0.00652307
   248	0.00651639	0.00651639
   249	0.00651637	0.00651637
   250	0.00651651	0.00651651
   251	0.00651637	0.00651637
   252	0.00651651	0.00651651
   253	0.00651645	0.00651645
   254	0.00651655	0.00651655
   255	0.00652188	0.00652188

Measurement: p_sw
  step	AVG(v(n001,n004)*ix(u2:d))	FROM	TO
     1	2.14183	0.0065	0.007
     2	2.15509	0.0065	0.007
     3	2.13362	0.0065	0.007
     4	2.12983	0.0065	0.007
     5	2.12165	0.0065	0.007
     6	2.10151	0.0065	0.007
     7	2.08305	0.0065	0.007
     8	2.11258	0.0065	0.007
     9	2.11644	0.0065	0.007
    10	2.10634	0.0065	0.007
    11	2.10505	0.0065	0.007
    12	2.10226	0.0065	0.007
    13	2.10007	0.0065	0.007
    14	2.09766	0.0065	0.007
    15	2.09644	0.0065	0.007
    16	2.10474	0.0065	0.007
    17	2.09611	0.0065	0.007
    18	2.11005	0.0065	0.007
    19	2.11155	0.0065	0.007
    20	2.10458	0.0065	0.007
    21	2.1212	0.0065	0.007
    22	2.13424	0.0065	0.007
    23	2.14273	0.0065	0.007
    24	2.15306	0.0065	0.007
    25	2.16726	0.0065	0.007
    26	2.17395	0.0065	0.007
    27	2.19072	0.0065	0.007
    28	2.20991	0.0065	0.007
    29	2.20595	0.0065	0.007
    30	2.23805	0.0065	0.007
    31	2.26994	0.0065	0.007
    32	2.29359	0.0065	0.007
    33	2.3221	0.0065	0.007
    34	2.35651	0.0065	0.007
    35	2.39471	0.0065	0.007
    36	2.43631	0.0065	0.007
    37	2.49034	0.0065	0.007
    38	2.55093	0.0065	0.007
    39	2.6182	0.0065	0.007
    40	2.69702	0.0065	0.007
    41	2.7909	0.0065	0.007
    42	2.90389	0.0065	0.007
    43	3.04367	0.0065	0.007
    44	3.21914	0.0065	0.007
    45	3.44006	0.0065	0.007
    46	3.74047	0.0065	0.007
    47	4.16112	0.0065	0.007
    48	4.78818	0.0065	0.007
    49	5.87559	0.0065	0.007
    50	75.1702	0.0065	0.007
    51	97.1823	0.0065	0.007
    52	1.70145	0.0065	0.007
    53	1.69862	0.0065	0.007
    54	1.69217	0.0065	0.007
    55	1.68068	0.0065	0.007
    56	1.67149	0.0065	0.007
    57	1.65741	0.0065	0.007
    58	1.66216	0.0065	0.007
    59	1.65088	0.0065	0.007
    60	1.65625	0.0065	0.007
    61	1.64771	0.0065	0.007
    62	1.63707	0.0065	0.007
    63	1.64968	0.0065	0.007
    64	1.64391	0.0065	0.007
    65	1.64614	0.0065	0.007
    66	1.64753	0.0065	0.007
    67	1.64528	0.0065	0.007
    68	1.64551	0.0065	0.007
    69	1.6529	0.0065	0.007
    70	1.64873	0.0065	0.007
    71	1.65667	0.0065	0.007
    72	1.66109	0.0065	0.007
    73	1.66645	0.0065	0.007
    74	1.67542	0.0065	0.007
    75	1.68142	0.0065	0.007
    76	1.69225	0.0065	0.007
    77	1.70342	0.0065	0.007
    78	1.70789	0.0065	0.007
    79	1.72509	0.0065	0.007
    80	1.73318	0.0065	0.007
    81	1.74485	0.0065	0.007
    82	1.76506	0.0065	0.007
    83	1.78505	0.0065	0.007
    84	1.8011	0.0065	0.007
    85	1.83191	0.0065	0.007
    86	1.86079	0.0065	0.007
    87	1.89274	0.0065	0.007
    88	1.92871	0.0065	0.007
    89	1.97393	0.0065	0.007
    90	2.01936	0.0065	0.007
    91	2.0815	0.0065	0.007
    92	2.14449	0.0065	0.007
    93	2.23017	0.0065	0.007
    94	2.33055	0.0065	0.007
    95	2.45504	0.0065	0.007
    96	2.60795	0.0065	0.007
    97	2.82668	0.0065	0.007
    98	3.11709	0.0065	0.007
    99	3.5475	0.0065	0.007
   100	4.24728	0.0065	0.007
   101	5.63484	0.0065	0.007
   102	98.4502	0.0065	0.007
   103	1.09148	0.0065	0.007
   104	1.0871	0.0065	0.007
   105	1.08545	0.0065	0.007
   106	1.07901	0.0065	0.007
   107	1.06242	0.0065	0.007
   108	1.06458	0.0065	0.007
   109	1.0648	0.0065	0.007
   110	1.05923	0.0065	0.007
   111	1.05964	0.0065	0.007
   112	1.05574	0.0065	0.007
   113	1.05376	0.0065	0.007
   114	1.04358	0.0065	0.007
   115	1.05204	0.0065	0.007
   116	1.05293	0.0065	0.007
   117	1.04971	0.0065	0.007
   118	1.05062	0.0065	0.007
   119	1.05092	0.0065	0.007
   120	1.05258	0.0065	0.007
   121	1.05067	0.0065	0.007
   122	1.05684	0.0065	0.007
   123	1.05819	0.0065	0.007
   124	1.06056	0.0065	0.007
   125	1.06435	0.0065	0.007
   126	1.06914	0.0065	0.007
   127	1.07394	0.0065	0.007
   128	1.07941	0.0065	0.007
   129	1.0852	0.0065	0.007
   130	1.09237	0.0065	0.007
   131	1.0993	0.0065	0.007
   132	1.105	0.0065	0.007
   133	1.11195	0.0065	0.007
   134	1.13971	0.0065	0.007
   135	1.13468	0.0065	0.007
   136	1.14976	0.0065	0.007
   137	1.16455	0.0065	0.007
   138	1.17932	0.0065	0.007
   139	1.20204	0.0065	0.007
   140	1.22507	0.0065	0.007
   141	1.25222	0.0065	0.007
   142	1.28212	0.0065	0.007
   143	1.32382	0.0065	0.007
   144	1.36341	0.0065	0.007
   145	1.4167	0.0065	0.007
   146	1.48377	0.0065	0.007
   147	1.55984	0.0065	0.007
   148	1.67087	0.0065	0.007
   149	1.81461	0.0065	0.007
   150	2.02092	0.0065	0.007
   151	2.37242	0.0065	0.007
   152	2.91372	0.0065	0.007
   153	100.374	0.0065	0.007
   154	0.927032	0.0065	0.007
   155	0.92976	0.0065	0.007
   156	0.897105	0.0065	0.007
   157	0.920424	0.0065	0.007
   158	0.919096	0.0065	0.007
   159	0.912136	0.0065	0.007
   160	0.909894	0.0065	0.007
   161	0.90389	0.0065	0.007
   162	0.902336	0.0065	0.007
   163	0.908194	0.0065	0.007
   164	0.901328	0.0065	0.007
   165	0.902493	0.0065	0.007
   166	0.897058	0.0065	0.007
   167	0.898746	0.0065	0.007
   168	0.900047	0.0065	0.007
   169	0.900541	0.0065	0.007
   170	0.901626	0.0065	0.007
   171	0.899263	0.0065	0.007
   172	0.901125	0.0065	0.007
   173	0.902767	0.0065	0.007
   174	0.905816	0.0065	0.007
   175	0.907396	0.0065	0.007
   176	0.910606	0.0065	0.007
   177	0.911992	0.0065	0.007
   178	0.914631	0.0065	0.007
   179	0.919829	0.0065	0.007
   180	0.922643	0.0065	0.007
   181	0.931169	0.0065	0.007
   182	0.934958	0.0065	0.007
   183	0.939774	0.0065	0.007
   184	0.945577	0.0065	0.007
   185	0.957295	0.0065	0.007
   186	0.965708	0.0065	0.007
   187	0.976388	0.0065	0.007
   188	0.98792	0.0065	0.007
   189	1.00164	0.0065	0.007
   190	1.01811	0.0065	0.007
   191	1.03614	0.0065	0.007
   192	1.05743	0.0065	0.007
   193	1.08073	0.0065	0.007
   194	1.111	0.0065	0.007
   195	1.1428	0.0065	0.007
   196	1.18713	0.0065	0.007
   197	1.23713	0.0065	0.007
   198	1.29772	0.0065	0.007
   199	1.38072	0.0065	0.007
   200	1.49123	0.0065	0.007
   201	1.64899	0.0065	0.007
   202	1.88589	0.0065	0.007
   203	2.28813	0.0065	0.007
   204	101.084	0.0065	0.007
   205	0.736627	0.0065	0.007
   206	0.739211	0.0065	0.007
   207	0.732695	0.0065	0.007
   208	0.72615	0.0065	0.007
   209	0.730024	0.0065	0.007
   210	0.726058	0.0065	0.007
   211	0.723923	0.0065	0.007
   212	0.720849	0.0065	0.007
   213	0.719721	0.0065	0.007
   214	0.717847	0.0065	0.007
   215	0.719187	0.0065	0.007
   216	0.720142	0.0065	0.007
   217	0.718644	0.0065	0.007
   218	0.713447	0.0065	0.007
   219	0.718393	0.0065	0.007
   220	0.718643	0.0065	0.007
   221	0.717721	0.0065	0.007
   222	0.718024	0.0065	0.007
   223	0.715148	0.0065	0.007
   224	0.720531	0.0065	0.007
   225	0.721134	0.0065	0.007
   226	0.719022	0.0065	0.007
   227	0.723222	0.0065	0.007
   228	0.723744	0.0065	0.007
   229	0.725711	0.0065	0.007
   230	0.729817	0.0065	0.007
   231	0.733879	0.0065	0.007
   232	0.738673	0.0065	0.007
   233	0.737528	0.0065	0.007
   234	0.746168	0.0065	0.007
   235	0.75044	0.0065	0.007
   236	0.756454	0.0065	0.007
   237	0.760486	0.0065	0.007
   238	0.772361	0.0065	0.007
   239	0.779088	0.0065	0.007
   240	0.790177	0.0065	0.007
   241	0.797923	0.0065	0.007
   242	0.811511	0.0065	0.007
   243	0.827247	0.0065	0.007
   244	0.844204	0.0065	0.007
   245	0.863453	0.0065	0.007
   246	0.887617	0.0065	0.007
   247	0.911549	0.0065	0.007
   248	0.949974	0.0065	0.007
   249	0.994614	0.0065	0.007
   250	1.04525	0.0065	0.007
   251	1.12106	0.0065	0.007
   252	1.22453	0.0065	0.007
   253	1.36957	0.0065	0.007
   254	1.61675	0.0065	0.007
   255	101.567	0.0065	0.007

Measurement: t_set
  step	time	at
     1	0.000613579	0.000613579
     2	0.000613546	0.000613546
     3	0.000613596	0.000613596
     4	0.000613614	0.000613614
     5	0.000613653	0.000613653
     6	0.000613626	0.000613626
     7	0.000613656	0.000613656
     8	0.000613716	0.000613716
     9	0.000613681	0.000613681
    10	0.00061374	0.00061374
    11	0.000613804	0.000613804
    12	0.000613813	0.000613813
    13	0.000613795	0.000613795
    14	0.000613843	0.000613843
    15	0.000613854	0.000613854
    16	0.000613924	0.000613924
    17	0.000613945	0.000613945
    18	0.000613987	0.000613987
    19	0.00061402	0.00061402
    20	0.000614068	0.000614068
    21	0.000614108	0.000614108
    22	0.000614187	0.000614187
    23	0.000614223	0.000614223
    24	0.000614253	0.000614253
    25	0.000614348	0.000614348
    26	0.000614377	0.000614377
    27	0.000614459	0.000614459
    28	0.000614529	0.000614529
    29	0.000614667	0.000614667
    30	0.000614756	0.000614756
    31	0.000614888	0.000614888
    32	0.000618368	0.000618368
    33	0.000618535	0.000618535
    34	0.00061869	0.00061869
    35	0.000618968	0.000618968
    36	0.00061926	0.00061926
    37	0.000619722	0.000619722
    38	0.000623661	0.000623661
    39	0.000628207	0.000628207
    40	0.00063381	0.00063381
    41	0.000643224	0.000643224
    42	0.000652836	0.000652836
    43	0.000662513	0.000662513
    44	0.000672404	0.000672404
    45	0.000682665	0.000682665
    46	0.000697081	0.000697081
    47	0.000712821	0.000712821
    48	0.00075162	0.00075162
    49	0.000908854	0.000908854
    50	0	0
    51	0	0
    52	0.000614278	0.000614278
    53	0.000614318	0.000614318
    54	0.000614278	0.000614278
    55	0.000614336	0.000614336
    56	0.000614333	0.000614333
    57	0.000614333	0.000614333
    58	0.00061437	0.00061437
    59	0.000614388	0.000614388
    60	0.000614397	0.000614397
    61	0.000614429	0.000614429
    62	0.000614433	0.000614433
    63	0.000614472	0.000614472
    64	0.00061446	0.00061446
    65	0.000614504	0.000614504
    66	0.000614535	0.000614535
    67	0.00061459	0.00061459
    68	0.000614577	0.000614577
    69	0.000614612	0.000614612
    70	0.000614622	0.000614622
    71	0.000614676	0.000614676
    72	0.000614701	0.000614701
    73	0.000614738	0.000614738
    74	0.000614779	0.000614779
    75	0.000614837	0.000614837
    76	0.000614867	0.000614867
    77	0.000614946	0.000614946
    78	0.000614991	0.000614991
    79	0.000615057	0.000615057
    80	0.000615122	0.000615122
    81	0.000615229	0.000615229
    82	0.000615304	0.000615304
    83	0.000615412	0.000615412
    84	0.000615528	0.000615528
    85	0.000615707	0.000615707
    86	0.000615878	0.000615878
    87	0.000616143	0.000616143
    88	0.000620759	0.000620759
    89	0.000621243	0.000621243
    90	0.000622194	0.000622194
    91	0.000628611	0.000628611
    92	0.00063993	0.00063993
    93	0.000647039	0.000647039
    94	0.0006542	0.0006542
    95	0.000665829	0.000665829
    96	0.000677746	0.000677746
    97	0.000685748	0.000685748
    98	0.000703554	0.000703554
    99	0.000729272	0.000729272
   100	0.000837036	0.000837036
   101	0.00226379	0.00226379
   102	0	0
   103	0.00061405	0.00061405
   104	0.000614089	0.000614089
   105	0.00061408	0.00061408
   106	0.000614105	0.000614105
   107	0.000614115	0.000614115
   108	0.000614132	0.000614132
   109	0.000614145	0.000614145
   110	0.000614159	0.000614159
   111	0.000614163	0.000614163
   112	0.00061419	0.00061419
   113	0.000614198	0.000614198
   114	0.000614254	0.000614254
   115	0.000614235	0.000614235
   116	0.00061425	0.00061425
   117	0.000614298	0.000614298
   118	0.000614304	0.000614304
   119	0.00061431	0.00061431
   120	0.000614354	0.000614354
   121	0.000614376	0.000614376
   122	0.000614403	0.000614403
   123	0.000614417	0.000614417
   124	0.000614464	0.000614464
   125	0.000614491	0.000614491
   126	0.000614495	0.000614495
   127	0.000614558	0.000614558
   128	0.000614603	0.000614603
   129	0.000614612	0.000614612
   130	0.000621534	0.000621534
   131	0.000621593	0.000621593
   132	0.000621637	0.000621637
   133	0.000621697	0.000621697
   134	0.000621766	0.000621766
   135	0.000621831	0.000621831
   136	0.00062196	0.00062196
   137	0.000622062	0.000622062
   138	0.000622207	0.000622207
   139	0.000622423	0.000622423
   140	0.000622697	0.000622697
   141	0.000623286	0.000623286
   142	0.00063176	0.00063176
   143	0.000634379	0.000634379
   144	0.000643905	0.000643905
   145	0.000653573	0.000653573
   146	0.000663365	0.000663365
   147	0.000673167	0.000673167
   148	0.00068331	0.00068331
   149	0.000693844	0.000693844
   150	0.000705775	0.000705775
   151	0.000755597	0.000755597
   152	0.0013802	0.0013802
   153	0	0
   154	0.000614516	0.000614516
   155	0.000614508	0.000614508
   156	0.000614508	0.000614508
   157	0.000614542	0.000614542
   158	0.000614528	0.000614528
   159	0.000614551	0.000614551
   160	0.000614568	0.000614568
   161	0.000614587	0.000614587
   162	0.000614619	0.000614619
   163	0.000614611	0.000614611
   164	0.000614624	0.000614624
   165	0.000622873	0.000622873
   166	0.000622855	0.000622855
   167	0.000622884	0.000622884
   168	0.000622894	0.000622894
   169	0.000622896	0.000622896
   170	0.000622915	0.000622915
   171	0.000622937	0.000622937
   172	0.000622964	0.000622964
   173	0.000622988	0.000622988
   174	0.000623014	0.000623014
   175	0.000623023	0.000623023
   176	0.000623049	0.000623049
   177	0.00062309	0.00062309
   178	0.000623133	0.000623133
   179	0.000623139	0.000623139
   180	0.000623196	0.000623196
   181	0.000623229	0.000623229
   182	0.000623273	0.000623273
   183	0.000623323	0.000623323
   184	0.000623358	0.000623358
   185	0.00062342	0.00062342
   186	0.000623495	0.000623495
   187	0.000623586	0.000623586
   188	0.000623701	0.000623701
   189	0.000623821	0.000623821
   190	0.000624019	0.000624019
   191	0.000624246	0.000624246
   192	0.000624742	0.000624742
   193	0.000626243	0.000626243
   194	0.000637247	0.000637247
   195	0.000648037	0.000648037
   196	0.000650941	0.000650941
   197	0.000661759	0.000661759
   198	0.000673085	0.000673085
   199	0.000675978	0.000675978
   200	0.000687779	0.000687779
   201	0.000700281	0.000700281
   202	0.000735677	0.000735677
   203	0.00132495	0.00132495
   204	0	0
   205	0.000621392	0.000621392
   206	0.00062144	0.00062144
   207	0.000621392	0.000621392
   208	0.0006214	0.0006214
   209	0.000621426	0.000621426
   210	0.00062145	0.00062145
   211	0.000621483	0.000621483
   212	0.000621439	0.000621439
   213	0.000621444	0.000621444
   214	0.000621484	0.000621484
   215	0.000621494	0.000621494
   216	0.000621579	0.000621579
   217	0.000621558	0.000621558
   218	0.000621586	0.000621586
   219	0.000621559	0.000621559
   220	0.000621551	0.000621551
   221	0.000621565	0.000621565
   222	0.000621605	0.000621605
   223	0.000621664	0.000621664
   224	0.000621637	0.000621637
   225	0.000621643	0.000621643
   226	0.000621658	0.000621658
   227	0.00062168	0.00062168
   228	0.000621691	0.000621691
   229	0.000621771	0.000621771
   230	0.000621803	0.000621803
   231	0.000621787	0.000621787
   232	0.00062185	0.00062185
   233	0.000621856	0.000621856
   234	0.0006219	0.0006219
   235	0.00062195	0.00062195
   236	0.00062198	0.00062198
   237	0.000622069	0.000622069
   238	0.000622111	0.000622111
   239	0.00062223	0.00062223
   240	0.000622321	0.000622321
   241	0.00062247	0.00062247
   242	0.000622681	0.000622681
   243	0.000634003	0.000634003
   244	0.000635225	0.000635225
   245	0.000638068	0.000638068
   246	0.000651472	0.000651472
   247	0.000654628	0.000654628
   248	0.000667986	0.000667986
   249	0.000670558	0.000670558
   250	0.000684776	0.000684776
   251	0.000687672	0.000687672
   252	0.00070274	0.00070274
   253	0.000719673	0.000719673
   254	0.00147024	0.00147024
   255	0	0

Measurement: tduty
  step	tduty	FROM	TO
     1	2.06821e-006	0.00650223	0.0065043
     2	2.07197e-006	0.00650229	0.00650437
     3	2.06739e-006	0.00650206	0.00650413
     4	2.07114e-006	0.0065022	0.00650427
     5	2.06353e-006	0.00650214	0.00650421
     6	2.05573e-006	0.00650161	0.00650366
     7	2.06751e-006	0.00650184	0.0065039
     8	2.05141e-006	0.00650198	0.00650403
     9	2.05323e-006	0.00650207	0.00650412
    10	2.04646e-006	0.00650162	0.00650367
    11	2.05208e-006	0.00650206	0.00650411
    12	2.03923e-006	0.00650211	0.00650415
    13	2.01312e-006	0.00650194	0.00650395
    14	2.01159e-006	0.00650216	0.00650417
    15	2.00837e-006	0.0065017	0.00650371
    16	2.01282e-006	0.00650178	0.00650379
    17	2.00899e-006	0.00650198	0.00650399
    18	2.00381e-006	0.00650191	0.00650392
    19	2.0108e-006	0.00650207	0.00650408
    20	2.0069e-006	0.00650186	0.00650386
    21	2.0021e-006	0.00650215	0.00650415
    22	2.00462e-006	0.00650208	0.00650409
    23	2.00049e-006	0.0065019	0.0065039
    24	2.0023e-006	0.00650219	0.0065042
    25	2.00049e-006	0.00650195	0.00650395
    26	1.99842e-006	0.00650217	0.00650417
    27	2.00428e-006	0.00650215	0.00650415
    28	1.98717e-006	0.00650217	0.00650416
    29	1.98526e-006	0.00650251	0.0065045
    30	1.99278e-006	0.00650211	0.0065041
    31	1.98728e-006	0.00650199	0.00650397
    32	1.98646e-006	0.00650201	0.006504
    33	1.98233e-006	0.00650204	0.00650402
    34	1.97306e-006	0.006502	0.00650397
    35	1.97762e-006	0.00650185	0.00650382
    36	1.96757e-006	0.00650189	0.00650386
    37	1.97396e-006	0.00650191	0.00650389
    38	1.96603e-006	0.00650196	0.00650392
    39	1.9632e-006	0.0065019	0.00650387
    40	1.95893e-006	0.00650219	0.00650415
    41	1.95129e-006	0.00650202	0.00650397
    42	1.94464e-006	0.00650197	0.00650391
    43	1.94176e-006	0.00650193	0.00650387
    44	1.92278e-006	0.00650184	0.00650376
    45	1.92901e-006	0.00650187	0.0065038
    46	1.91287e-006	0.00650206	0.00650397
    47	1.88629e-006	0.00650204	0.00650393
    48	1.87646e-006	0.00650211	0.00650399
    49	1.82999e-006	0.00650214	0.00650397
    50	8.60618e-007	0.00650301	0.00650387
    51	3.78202e-007	0.00650363	0.00650401
    52	2.66914e-006	0.00650018	0.00650285
    53	2.66339e-006	0.00650029	0.00650295
    54	2.65866e-006	0.00650016	0.00650282
    55	2.66159e-006	0.00650022	0.00650288
    56	2.65499e-006	0.00650033	0.00650298
    57	2.65843e-006	0.00650009	0.00650274
    58	2.64814e-006	0.00650026	0.00650291
    59	2.65383e-006	0.00650029	0.00650294
    60	2.65024e-006	0.00650013	0.00650278
    61	2.65046e-006	0.00650012	0.00650277
    62	2.64054e-006	0.00650026	0.0065029
    63	2.62229e-006	0.00650039	0.00650301
    64	2.61335e-006	0.00650029	0.00650291
    65	2.60604e-006	0.0065004	0.006503
    66	2.60545e-006	0.00650032	0.00650293
    67	2.60561e-006	0.00650042	0.00650302
    68	2.60281e-006	0.00650025	0.00650286
    69	2.59947e-006	0.00650039	0.00650299
    70	2.60279e-006	0.00650032	0.00650292
    71	2.59932e-006	0.00650025	0.00650285
    72	2.60298e-006	0.00650035	0.00650295
    73	2.59492e-006	0.00650035	0.00650295
    74	2.60281e-006	0.00650042	0.00650303
    75	2.59858e-006	0.00650033	0.00650293
    76	2.59218e-006	0.00650041	0.006503
    77	2.59561e-006	0.00650042	0.00650301
    78	2.59127e-006	0.00650023	0.00650282
    79	2.59067e-006	0.00650041	0.006503
    80	2.58745e-006	0.00650031	0.0065029
    81	2.58398e-006	0.00650031	0.00650289
    82	2.58407e-006	0.00650038	0.00650297
    83	2.57884e-006	0.00650033	0.00650291
    84	2.57772e-006	0.00650028	0.00650286
    85	2.57714e-006	0.00650042	0.006503
    86	2.57395e-006	0.00650042	0.00650299
    87	2.57162e-006	0.00650026	0.00650284
    88	2.5632e-006	0.00650036	0.00650292
    89	2.56628e-006	0.00650031	0.00650288
    90	2.56088e-006	0.00650046	0.00650302
    91	2.54769e-006	0.00650038	0.00650293
    92	2.55223e-006	0.00650028	0.00650284
    93	2.54847e-006	0.00650052	0.00650307
    94	2.53299e-006	0.00650039	0.00650292
    95	2.5271e-006	0.00650047	0.006503
    96	2.51962e-006	0.00650048	0.006503
    97	2.5108e-006	0.00650059	0.0065031
    98	2.49631e-006	0.00650053	0.00650303
    99	2.46334e-006	0.00650038	0.00650284
   100	2.43655e-006	0.00650041	0.00650285
   101	2.37846e-006	0.00650053	0.00650291
   102	4.91631e-007	0.00650293	0.00650342
   103	4.29394e-006	0.00650562	0.00650991
   104	4.27927e-006	0.00650566	0.00650994
   105	4.28112e-006	0.00650555	0.00650983
   106	4.28107e-006	0.00650565	0.00650993
   107	4.28191e-006	0.00650559	0.00650988
   108	4.26459e-006	0.00650564	0.00650991
   109	4.27439e-006	0.00650567	0.00650994
   110	4.27043e-006	0.00650579	0.00651006
   111	4.26243e-006	0.00650566	0.00650992
   112	4.26953e-006	0.00650568	0.00650995
   113	4.26557e-006	0.00650553	0.0065098
   114	4.23621e-006	0.00650573	0.00650997
   115	4.23211e-006	0.00650564	0.00650987
   116	4.23494e-006	0.00650579	0.00651003
   117	4.22531e-006	0.00650581	0.00651003
   118	4.22715e-006	0.00650577	0.00650999
   119	4.23431e-006	0.00650563	0.00650986
   120	4.21975e-006	0.00650577	0.00650999
   121	4.2257e-006	0.00650573	0.00650995
   122	4.21468e-006	0.00650578	0.00651
   123	4.21257e-006	0.00650586	0.00651007
   124	4.21577e-006	0.00650582	0.00651003
   125	4.21885e-006	0.00650576	0.00650998
   126	4.2204e-006	0.00650581	0.00651003
   127	4.20876e-006	0.00650589	0.0065101
   128	4.21412e-006	0.00650576	0.00650998
   129	4.21381e-006	0.00650575	0.00650996
   130	4.20608e-006	0.00650574	0.00650995
   131	4.20381e-006	0.00650592	0.00651012
   132	4.20696e-006	0.00650563	0.00650984
   133	4.20417e-006	0.00650577	0.00650998
   134	-6.01644e-006	0.00650604	0.00650003
   135	4.20091e-006	0.00650584	0.00651004
   136	4.19628e-006	0.00650588	0.00651007
   137	4.18903e-006	0.00650585	0.00651004
   138	4.19535e-006	0.00650584	0.00651004
   139	4.18866e-006	0.00650577	0.00650996
   140	4.17752e-006	0.00650572	0.0065099
   141	4.17832e-006	0.00650578	0.00650995
   142	4.17184e-006	0.00650589	0.00651007
   143	4.16618e-006	0.00650598	0.00651015
   144	4.16996e-006	0.00650582	0.00650999
   145	4.15999e-006	0.00650594	0.0065101
   146	4.14871e-006	0.00650591	0.00651005
   147	4.13563e-006	0.00650585	0.00650999
   148	4.12477e-006	0.00650584	0.00650997
   149	4.11256e-006	0.00650588	0.00650999
   150	4.08931e-006	0.00650587	0.00650996
   151	4.0676e-006	0.00650608	0.00651015
   152	4.01356e-006	0.00650595	0.00650996
   153	8.04846e-007	0.00650904	0.00650985
   154	5.13927e-006	0.00650629	0.00651143
   155	5.13517e-006	0.00650626	0.0065114
   156	5.13832e-006	0.00650635	0.00651148
   157	5.13241e-006	0.00650627	0.0065114
   158	5.13001e-006	0.00650623	0.00651136
   159	5.1224e-006	0.00650622	0.00651134
   160	5.12059e-006	0.00650622	0.00651134
   161	5.12535e-006	0.0065061	0.00651123
   162	5.12102e-006	0.00650613	0.00651125
   163	5.11342e-006	0.00650614	0.00651125
   164	5.11762e-006	0.00650611	0.00651123
   165	5.07984e-006	0.00650623	0.00651131
   166	5.083e-006	0.00650623	0.00651131
   167	5.08069e-006	0.00650614	0.00651122
   168	5.07629e-006	0.0065061	0.00651118
   169	5.07866e-006	0.00650618	0.00651125
   170	5.07541e-006	0.00650631	0.00651139
   171	5.08326e-006	0.00650614	0.00651123
   172	5.06744e-006	0.00650614	0.00651121
   173	5.0745e-006	0.00650616	0.00651123
   174	5.07623e-006	0.00650622	0.0065113
   175	5.07238e-006	0.00650616	0.00651123
   176	5.06937e-006	0.00650621	0.00651128
   177	5.06785e-006	0.0065063	0.00651137
   178	5.0634e-006	0.00650626	0.00651132
   179	5.05972e-006	0.00650624	0.0065113
   180	5.04947e-006	0.00650623	0.00651128
   181	5.05244e-006	0.00650626	0.00651132
   182	5.05412e-006	0.00650632	0.00651137
   183	5.06083e-006	0.00650625	0.00651131
   184	5.04869e-006	0.00650619	0.00651124
   185	5.04847e-006	0.00650627	0.00651132
   186	5.0552e-006	0.00650624	0.0065113
   187	5.04198e-006	0.00650632	0.00651137
   188	5.03422e-006	0.00650628	0.00651132
   189	5.03966e-006	0.00650616	0.00651119
   190	5.03612e-006	0.00650623	0.00651127
   191	5.04044e-006	0.00650621	0.00651125
   192	5.03184e-006	0.00650625	0.00651128
   193	5.02624e-006	0.00650626	0.00651129
   194	5.01832e-006	0.00650626	0.00651128
   195	5.01514e-006	0.00650629	0.0065113
   196	5.00578e-006	0.0065063	0.00651131
   197	4.99429e-006	0.00650635	0.00651135
   198	4.97953e-006	0.00650625	0.00651123
   199	4.97841e-006	0.00650627	0.00651125
   200	4.9601e-006	0.00650632	0.00651128
   201	4.94818e-006	0.00650635	0.0065113
   202	4.91785e-006	0.00650631	0.00651123
   203	4.88232e-006	0.00650637	0.00651125
   204	9.66461e-007	0.00651029	0.00651125
   205	-9.50234e-006	0.00651626	0.00650675
   206	-9.49434e-006	0.00651628	0.00650679
   207	-9.50552e-006	0.00651623	0.00650673
   208	-9.51512e-006	0.0065162	0.00650668
   209	-9.50892e-006	0.00651622	0.00650671
   210	-9.51818e-006	0.00651627	0.00650675
   211	-9.51658e-006	0.00651622	0.00650671
   212	-9.51388e-006	0.00651626	0.00650674
   213	-9.52832e-006	0.00651629	0.00650676
   214	-9.52249e-006	0.00651628	0.00650675
   215	6.812e-006	0.00650003	0.00650684
   216	6.77877e-006	0.00650012	0.0065069
   217	6.78521e-006	0.00650004	0.00650682
   218	6.7793e-006	0.0065	0.00650678
   219	6.77886e-006	0.0065001	0.00650688
   220	6.78844e-006	0.00650004	0.00650683
   221	6.78797e-006	0.00650006	0.00650685
   222	6.76676e-006	0.0065001	0.00650687
   223	-9.56684e-006	0.00651634	0.00650677
   224	6.77173e-006	0.00650004	0.00650681
   225	6.77763e-006	0.00650011	0.00650688
[...]
    31	0.0764046	0.0065	0.007
    32	0.0762634	0.0065	0.007
    33	0.0773582	0.0065	0.007
    34	0.0767288	0.0065	0.007
    35	0.0762596	0.0065	0.007
    36	0.076725	0.0065	0.007
    37	0.0769501	0.0065	0.007
    38	0.0779877	0.0065	0.007
    39	0.0768166	0.0065	0.007
    40	0.0769997	0.0065	0.007
    41	0.0766411	0.0065	0.007
    42	0.078495	0.0065	0.007
    43	0.0769882	0.0065	0.007
    44	0.0773621	0.0065	0.007
    45	0.0787048	0.0065	0.007
    46	0.0779266	0.0065	0.007
    47	0.0786781	0.0065	0.007
    48	0.0792503	0.0065	0.007
    49	0.0817757	0.0065	0.007
    50	0.109093	0.0065	0.007
    51	0.0445538	0.0065	0.007
    52	0.0971603	0.0065	0.007
    53	0.0967522	0.0065	0.007
    54	0.0972176	0.0065	0.007
    55	0.0964546	0.0065	0.007
    56	0.0970535	0.0065	0.007
    57	0.0963974	0.0065	0.007
    58	0.0967026	0.0065	0.007
    59	0.097271	0.0065	0.007
    60	0.0971375	0.0065	0.007
    61	0.097187	0.0065	0.007
    62	0.0970612	0.0065	0.007
    63	0.0966148	0.0065	0.007
    64	0.0976601	0.0065	0.007
    65	0.0968323	0.0065	0.007
    66	0.0967789	0.0065	0.007
    67	0.0975037	0.0065	0.007
    68	0.0966454	0.0065	0.007
    69	0.0964775	0.0065	0.007
    70	0.0972748	0.0065	0.007
    71	0.096756	0.0065	0.007
    72	0.0972443	0.0065	0.007
    73	0.0975876	0.0065	0.007
    74	0.0969467	0.0065	0.007
    75	0.0972672	0.0065	0.007
    76	0.0973015	0.0065	0.007
    77	0.0969276	0.0065	0.007
    78	0.0976295	0.0065	0.007
    79	0.0970726	0.0065	0.007
    80	0.0972061	0.0065	0.007
    81	0.0970421	0.0065	0.007
    82	0.0974579	0.0065	0.007
    83	0.0969658	0.0065	0.007
    84	0.0972176	0.0065	0.007
    85	0.0971222	0.0065	0.007
    86	0.0975113	0.0065	0.007
    87	0.0972862	0.0065	0.007
    88	0.0972061	0.0065	0.007
    89	0.0968933	0.0065	0.007
    90	0.0975571	0.0065	0.007
    91	0.0978317	0.0065	0.007
    92	0.0974312	0.0065	0.007
    93	0.0972939	0.0065	0.007
    94	0.0982704	0.0065	0.007
    95	0.0981674	0.0065	0.007
    96	0.0980568	0.0065	0.007
    97	0.0983467	0.0065	0.007
    98	0.0985947	0.0065	0.007
    99	0.0998802	0.0065	0.007
   100	0.0993576	0.0065	0.007
   101	0.100414	0.0065	0.007
   102	0.0548229	0.0065	0.007
   103	0.153706	0.0065	0.007
   104	0.153049	0.0065	0.007
   105	0.154572	0.0065	0.007
   106	0.154148	0.0065	0.007
   107	0.15332	0.0065	0.007
   108	0.154377	0.0065	0.007
   109	0.153908	0.0065	0.007
   110	0.153385	0.0065	0.007
   111	0.153751	0.0065	0.007
   112	0.153255	0.0065	0.007
   113	0.153725	0.0065	0.007
   114	0.154243	0.0065	0.007
   115	0.154163	0.0065	0.007
   116	0.15369	0.0065	0.007
   117	0.153236	0.0065	0.007
   118	0.153099	0.0065	0.007
   119	0.153194	0.0065	0.007
   120	0.154438	0.0065	0.007
   121	0.153851	0.0065	0.007
   122	0.15369	0.0065	0.007
   123	0.153473	0.0065	0.007
   124	0.154049	0.0065	0.007
   125	0.153744	0.0065	0.007
   126	0.153709	0.0065	0.007
   127	0.153347	0.0065	0.007
   128	0.153641	0.0065	0.007
   129	0.153076	0.0065	0.007
   130	0.153008	0.0065	0.007
   131	0.153271	0.0065	0.007
   132	0.15324	0.0065	0.007
   133	0.153934	0.0065	0.007
   134	0.154362	0.0065	0.007
   135	0.154068	0.0065	0.007
   136	0.153538	0.0065	0.007
   137	0.153927	0.0065	0.007
   138	0.153893	0.0065	0.007
   139	0.15411	0.0065	0.007
   140	0.153675	0.0065	0.007
   141	0.154263	0.0065	0.007
   142	0.154781	0.0065	0.007
   143	0.153584	0.0065	0.007
   144	0.15514	0.0065	0.007
   145	0.155167	0.0065	0.007
   146	0.154816	0.0065	0.007
   147	0.15493	0.0065	0.007
   148	0.154522	0.0065	0.007
   149	0.155083	0.0065	0.007
   150	0.154587	0.0065	0.007
   151	0.155594	0.0065	0.007
   152	0.157043	0.0065	0.007
   153	0.0868835	0.0065	0.007
   154	0.182884	0.0065	0.007
   155	0.183708	0.0065	0.007
   156	0.184181	0.0065	0.007
   157	0.183445	0.0065	0.007
   158	0.183365	0.0065	0.007
   159	0.183136	0.0065	0.007
   160	0.183231	0.0065	0.007
   161	0.182724	0.0065	0.007
   162	0.182652	0.0065	0.007
   163	0.182304	0.0065	0.007
   164	0.184013	0.0065	0.007
   165	0.182903	0.0065	0.007
   166	0.182713	0.0065	0.007
   167	0.183212	0.0065	0.007
   168	0.182663	0.0065	0.007
   169	0.182598	0.0065	0.007
   170	0.183098	0.0065	0.007
   171	0.182953	0.0065	0.007
   172	0.183392	0.0065	0.007
   173	0.183563	0.0065	0.007
   174	0.183781	0.0065	0.007
   175	0.183357	0.0065	0.007
   176	0.183643	0.0065	0.007
   177	0.183308	0.0065	0.007
   178	0.182621	0.0065	0.007
   179	0.183243	0.0065	0.007
   180	0.184761	0.0065	0.007
   181	0.183216	0.0065	0.007
   182	0.18335	0.0065	0.007
   183	0.184406	0.0065	0.007
   184	0.183178	0.0065	0.007
   185	0.183521	0.0065	0.007
   186	0.183865	0.0065	0.007
   187	0.182949	0.0065	0.007
   188	0.182663	0.0065	0.007
   189	0.183277	0.0065	0.007
   190	0.183083	0.0065	0.007
   191	0.184238	0.0065	0.007
   192	0.184658	0.0065	0.007
   193	0.18438	0.0065	0.007
   194	0.183079	0.0065	0.007
   195	0.182976	0.0065	0.007
   196	0.184803	0.0065	0.007
   197	0.183533	0.0065	0.007
   198	0.185471	0.0065	0.007
   199	0.184593	0.0065	0.007
   200	0.185326	0.0065	0.007
   201	0.185688	0.0065	0.007
   202	0.186142	0.0065	0.007
   203	0.186214	0.0065	0.007
   204	0.100666	0.0065	0.007
   205	0.242393	0.0065	0.007
   206	0.243507	0.0065	0.007
   207	0.242897	0.0065	0.007
   208	0.242619	0.0065	0.007
   209	0.243858	0.0065	0.007
   210	0.242874	0.0065	0.007
   211	0.242943	0.0065	0.007
   212	0.242615	0.0065	0.007
   213	0.243526	0.0065	0.007
   214	0.24297	0.0065	0.007
   215	0.242653	0.0065	0.007
   216	0.24369	0.0065	0.007
   217	0.242878	0.0065	0.007
   218	0.242359	0.0065	0.007
   219	0.243015	0.0065	0.007
   220	0.24263	0.0065	0.007
   221	0.243412	0.0065	0.007
   222	0.242638	0.0065	0.007
   223	0.24305	0.0065	0.007
   224	0.241909	0.0065	0.007
   225	0.243111	0.0065	0.007
   226	0.244263	0.0065	0.007
   227	0.24263	0.0065	0.007
   228	0.242279	0.0065	0.007
   229	0.242882	0.0065	0.007
   230	0.243198	0.0065	0.007
   231	0.243069	0.0065	0.007
   232	0.244007	0.0065	0.007
   233	0.24229	0.0065	0.007
   234	0.243793	0.0065	0.007
   235	0.242794	0.0065	0.007
   236	0.242756	0.0065	0.007
   237	0.243774	0.0065	0.007
   238	0.243259	0.0065	0.007
   239	0.243996	0.0065	0.007
   240	0.242905	0.0065	0.007
   241	0.242874	0.0065	0.007
   242	0.243454	0.0065	0.007
   243	0.242668	0.0065	0.007
   244	0.243324	0.0065	0.007
   245	0.243561	0.0065	0.007
   246	0.243637	0.0065	0.007
   247	0.244041	0.0065	0.007
   248	0.242867	0.0065	0.007
   249	0.243019	0.0065	0.007
   250	0.244003	0.0065	0.007
   251	0.24403	0.0065	0.007
   252	0.244228	0.0065	0.007
   253	0.244762	0.0065	0.007
   254	0.24585	0.0065	0.007
   255	0.131905	0.0065	0.007

Measurement: vout_avg
  step	AVG(v(out))	FROM	TO
     1	42.0859	0.0065	0.007
     2	42.0859	0.0065	0.007
     3	42.0859	0.0065	0.007
     4	42.0859	0.0065	0.007
     5	42.0858	0.0065	0.007
     6	42.0859	0.0065	0.007
     7	42.0859	0.0065	0.007
     8	42.0858	0.0065	0.007
     9	42.0859	0.0065	0.007
    10	42.0858	0.0065	0.007
    11	42.0858	0.0065	0.007
    12	42.0858	0.0065	0.007
    13	42.0858	0.0065	0.007
    14	42.0858	0.0065	0.007
    15	42.0857	0.0065	0.007
    16	42.0858	0.0065	0.007
    17	42.0859	0.0065	0.007
    18	42.0858	0.0065	0.007
    19	42.0858	0.0065	0.007
    20	42.0858	0.0065	0.007
    21	42.0859	0.0065	0.007
    22	42.0858	0.0065	0.007
    23	42.0858	0.0065	0.007
    24	42.0858	0.0065	0.007
    25	42.0858	0.0065	0.007
    26	42.0857	0.0065	0.007
    27	42.0857	0.0065	0.007
    28	42.0857	0.0065	0.007
    29	42.0857	0.0065	0.007
    30	42.0857	0.0065	0.007
    31	42.0857	0.0065	0.007
    32	42.0857	0.0065	0.007
    33	42.0856	0.0065	0.007
    34	42.0856	0.0065	0.007
    35	42.0856	0.0065	0.007
    36	42.0856	0.0065	0.007
    37	42.0856	0.0065	0.007
    38	42.0856	0.0065	0.007
    39	42.0856	0.0065	0.007
    40	42.0856	0.0065	0.007
    41	42.0856	0.0065	0.007
    42	42.0856	0.0065	0.007
    43	42.0854	0.0065	0.007
    44	42.0854	0.0065	0.007
    45	42.0853	0.0065	0.007
    46	42.0853	0.0065	0.007
    47	42.0851	0.0065	0.007
    48	42.0849	0.0065	0.007
    49	42.0848	0.0065	0.007
    50	38.9022	0.0065	0.007
    51	17.3456	0.0065	0.007
    52	42.0857	0.0065	0.007
    53	42.0857	0.0065	0.007
    54	42.0857	0.0065	0.007
    55	42.0857	0.0065	0.007
    56	42.0857	0.0065	0.007
    57	42.0857	0.0065	0.007
    58	42.0857	0.0065	0.007
    59	42.0857	0.0065	0.007
    60	42.0857	0.0065	0.007
    61	42.0857	0.0065	0.007
    62	42.0857	0.0065	0.007
    63	42.0857	0.0065	0.007
    64	42.0858	0.0065	0.007
    65	42.0857	0.0065	0.007
    66	42.0857	0.0065	0.007
    67	42.0856	0.0065	0.007
    68	42.0856	0.0065	0.007
    69	42.0856	0.0065	0.007
    70	42.0857	0.0065	0.007
    71	42.0856	0.0065	0.007
    72	42.0857	0.0065	0.007
    73	42.0856	0.0065	0.007
    74	42.0856	0.0065	0.007
    75	42.0856	0.0065	0.007
    76	42.0857	0.0065	0.007
    77	42.0857	0.0065	0.007
    78	42.0856	0.0065	0.007
    79	42.0856	0.0065	0.007
    80	42.0856	0.0065	0.007
    81	42.0857	0.0065	0.007
    82	42.0856	0.0065	0.007
    83	42.0856	0.0065	0.007
    84	42.0855	0.0065	0.007
    85	42.0856	0.0065	0.007
    86	42.0855	0.0065	0.007
    87	42.0855	0.0065	0.007
    88	42.0856	0.0065	0.007
    89	42.0855	0.0065	0.007
    90	42.0855	0.0065	0.007
    91	42.0855	0.0065	0.007
    92	42.0854	0.0065	0.007
    93	42.0854	0.0065	0.007
    94	42.0854	0.0065	0.007
    95	42.0854	0.0065	0.007
    96	42.0853	0.0065	0.007
    97	42.0852	0.0065	0.007
    98	42.0852	0.0065	0.007
    99	42.0851	0.0065	0.007
   100	42.0849	0.0065	0.007
   101	42.0846	0.0065	0.007
   102	17.3372	0.0065	0.007
   103	42.0851	0.0065	0.007
   104	42.0851	0.0065	0.007
   105	42.085	0.0065	0.007
   106	42.0851	0.0065	0.007
   107	42.0851	0.0065	0.007
   108	42.0851	0.0065	0.007
   109	42.0851	0.0065	0.007
   110	42.0851	0.0065	0.007
   111	42.0851	0.0065	0.007
   112	42.085	0.0065	0.007
   113	42.0851	0.0065	0.007
   114	42.0851	0.0065	0.007
   115	42.085	0.0065	0.007
   116	42.0851	0.0065	0.007
   117	42.0851	0.0065	0.007
   118	42.085	0.0065	0.007
   119	42.085	0.0065	0.007
   120	42.085	0.0065	0.007
   121	42.085	0.0065	0.007
   122	42.0851	0.0065	0.007
   123	42.085	0.0065	0.007
   124	42.085	0.0065	0.007
   125	42.085	0.0065	0.007
   126	42.0851	0.0065	0.007
   127	42.085	0.0065	0.007
   128	42.085	0.0065	0.007
   129	42.085	0.0065	0.007
   130	42.085	0.0065	0.007
   131	42.0849	0.0065	0.007
   132	42.085	0.0065	0.007
   133	42.085	0.0065	0.007
   134	42.085	0.0065	0.007
   135	42.0851	0.0065	0.007
   136	42.085	0.0065	0.007
   137	42.085	0.0065	0.007
   138	42.085	0.0065	0.007
   139	42.0851	0.0065	0.007
   140	42.085	0.0065	0.007
   141	42.085	0.0065	0.007
   142	42.085	0.0065	0.007
   143	42.0849	0.0065	0.007
   144	42.0849	0.0065	0.007
   145	42.085	0.0065	0.007
   146	42.0848	0.0065	0.007
   147	42.0848	0.0065	0.007
   148	42.0848	0.0065	0.007
   149	42.0847	0.0065	0.007
   150	42.0847	0.0065	0.007
   151	42.0847	0.0065	0.007
   152	42.0845	0.0065	0.007
   153	17.3302	0.0065	0.007
   154	42.0846	0.0065	0.007
   155	42.0846	0.0065	0.007
   156	42.0846	0.0065	0.007
   157	42.0846	0.0065	0.007
   158	42.0845	0.0065	0.007
   159	42.0846	0.0065	0.007
   160	42.0846	0.0065	0.007
   161	42.0846	0.0065	0.007
   162	42.0846	0.0065	0.007
   163	42.0845	0.0065	0.007
   164	42.0845	0.0065	0.007
   165	42.0845	0.0065	0.007
   166	42.0845	0.0065	0.007
   167	42.0845	0.0065	0.007
   168	42.0845	0.0065	0.007
   169	42.0845	0.0065	0.007
   170	42.0846	0.0065	0.007
   171	42.0845	0.0065	0.007
   172	42.0845	0.0065	0.007
   173	42.0845	0.0065	0.007
   174	42.0845	0.0065	0.007
   175	42.0845	0.0065	0.007
   176	42.0845	0.0065	0.007
   177	42.0845	0.0065	0.007
   178	42.0845	0.0065	0.007
   179	42.0845	0.0065	0.007
   180	42.0845	0.0065	0.007
   181	42.0844	0.0065	0.007
   182	42.0845	0.0065	0.007
   183	42.0845	0.0065	0.007
   184	42.0845	0.0065	0.007
   185	42.0845	0.0065	0.007
   186	42.0845	0.0065	0.007
   187	42.0845	0.0065	0.007
   188	42.0845	0.0065	0.007
   189	42.0845	0.0065	0.007
   190	42.0845	0.0065	0.007
   191	42.0844	0.0065	0.007
   192	42.0844	0.0065	0.007
   193	42.0844	0.0065	0.007
   194	42.0843	0.0065	0.007
   195	42.0844	0.0065	0.007
   196	42.0843	0.0065	0.007
   197	42.0843	0.0065	0.007
   198	42.0842	0.0065	0.007
   199	42.0843	0.0065	0.007
   200	42.0842	0.0065	0.007
   201	42.0842	0.0065	0.007
   202	42.0842	0.0065	0.007
   203	42.0841	0.0065	0.007
   204	17.3286	0.0065	0.007
   205	42.085	0.0065	0.007
   206	42.085	0.0065	0.007
   207	42.085	0.0065	0.007
   208	42.0851	0.0065	0.007
   209	42.085	0.0065	0.007
   210	42.0851	0.0065	0.007
   211	42.085	0.0065	0.007
   212	42.0849	0.0065	0.007
   213	42.085	0.0065	0.007
   214	42.0849	0.0065	0.007
   215	42.0848	0.0065	0.007
   216	42.0849	0.0065	0.007
   217	42.0849	0.0065	0.007
   218	42.0848	0.0065	0.007
   219	42.0849	0.0065	0.007
   220	42.085	0.0065	0.007
   221	42.085	0.0065	0.007
   222	42.0849	0.0065	0.007
   223	42.085	0.0065	0.007
   224	42.0848	0.0065	0.007
   225	42.0848	0.0065	0.007
   226	42.0851	0.0065	0.007
   227	42.085	0.0065	0.007
   228	42.085	0.0065	0.007
   229	42.085	0.0065	0.007
   230	42.0849	0.0065	0.007
   231	42.085	0.0065	0.007
   232	42.085	0.0065	0.007
   233	42.085	0.0065	0.007
   234	42.085	0.0065	0.007
   235	42.0848	0.0065	0.007
   236	42.0849	0.0065	0.007
   237	42.085	0.0065	0.007
   238	42.0849	0.0065	0.007
   239	42.0849	0.0065	0.007
   240	42.0848	0.0065	0.007
   241	42.0848	0.0065	0.007
   242	42.0848	0.0065	0.007
   243	42.0849	0.0065	0.007
   244	42.0848	0.0065	0.007
   245	42.0848	0.0065	0.007
   246	42.0847	0.0065	0.007
   247	42.085	0.0065	0.007
   248	42.0849	0.0065	0.007
   249	42.0847	0.0065	0.007
   250	42.0847	0.0065	0.007
   251	42.0847	0.0065	0.007
   252	42.0847	0.0065	0.007
   253	42.0847	0.0065	0.007
   254	42.0846	0.0065	0.007
   255	17.3266	0.0065	0.007

Measurement: i_drive
  step	MAX(ix(u2:d))	FROM	TO
     1	86.1405	0	0.007
     2	84.5893	0	0.007
     3	83.475	0	0.007
     4	82.4542	0	0.007
     5	80.8375	0	0.007
     6	79.4079	0	0.007
     7	78.1921	0	0.007
     8	76.7586	0	0.007
     9	75.42	0	0.007
    10	74.0468	0	0.007
    11	72.5731	0	0.007
    12	71.4454	0	0.007
    13	69.9777	0	0.007
    14	68.4787	0	0.007
    15	67.09	0	0.007
    16	65.6146	0	0.007
    17	64.2757	0	0.007
    18	62.8118	0	0.007
    19	61.5157	0	0.007
    20	59.928	0	0.007
    21	58.4869	0	0.007
    22	56.9406	0	0.007
    23	55.3708	0	0.007
    24	53.8685	0	0.007
    25	52.3102	0	0.007
    26	50.8038	0	0.007
    27	49.2006	0	0.007
    28	47.6281	0	0.007
    29	45.9319	0	0.007
    30	44.364	0	0.007
    31	42.7632	0	0.007
    32	41.0704	0	0.007
    33	39.3938	0	0.007
    34	37.7127	0	0.007
    35	35.9844	0	0.007
    36	34.2053	0	0.007
    37	32.4437	0	0.007
    38	30.6794	0	0.007
    39	28.9148	0	0.007
    40	27.0397	0	0.007
    41	25.1861	0	0.007
    42	23.2832	0	0.007
    43	21.3637	0	0.007
    44	19.4151	0	0.007
    45	17.4577	0	0.007
    46	15.489	0	0.007
    47	13.5215	0	0.007
    48	11.5696	0	0.007
    49	9.63768	0	0.007
    50	7.86866	0	0.007
    51	6.03567	0	0.007
    52	85.358	0	0.007
    53	84.1479	0	0.007
    54	82.8301	0	0.007
    55	81.4559	0	0.007
    56	80.1392	0	0.007
    57	78.8453	0	0.007
    58	77.5921	0	0.007
    59	76.1723	0	0.007
    60	74.7935	0	0.007
    61	73.6404	0	0.007
    62	72.1781	0	0.007
    63	70.8092	0	0.007
    64	69.4401	0	0.007
    65	68.1292	0	0.007
    66	66.6867	0	0.007
    67	65.2243	0	0.007
    68	63.8823	0	0.007
    69	62.5353	0	0.007
    70	61.002	0	0.007
    71	59.5787	0	0.007
    72	58.172	0	0.007
    73	56.6823	0	0.007
    74	55.0002	0	0.007
    75	53.6075	0	0.007
    76	51.9826	0	0.007
    77	50.4865	0	0.007
    78	48.9488	0	0.007
    79	47.4063	0	0.007
    80	45.785	0	0.007
    81	44.1709	0	0.007
    82	42.5311	0	0.007
    83	40.8824	0	0.007
    84	39.2516	0	0.007
    85	37.556	0	0.007
    86	35.8538	0	0.007
    87	34.1307	0	0.007
    88	32.3631	0	0.007
    89	30.6138	0	0.007
    90	28.8139	0	0.007
    91	27.012	0	0.007
    92	25.1808	0	0.007
    93	23.2926	0	0.007
    94	21.3862	0	0.007
    95	19.4609	0	0.007
    96	17.5119	0	0.007
    97	15.5548	0	0.007
    98	13.6005	0	0.007
    99	11.6589	0	0.007
   100	9.72872	0	0.007
   101	7.97029	0	0.007
   102	6.1012	0	0.007
   103	83.153	0	0.007
   104	81.9166	0	0.007
   105	80.6612	0	0.007
   106	79.6688	0	0.007
   107	78.8329	0	0.007
   108	77.1136	0	0.007
   109	75.5026	0	0.007
   110	74.5487	0	0.007
   111	73.2949	0	0.007
   112	72.0336	0	0.007
   113	70.8104	0	0.007
   114	69.3211	0	0.007
   115	67.8942	0	0.007
   116	66.5987	0	0.007
   117	65.4599	0	0.007
   118	63.8699	0	0.007
   119	62.451	0	0.007
   120	61.1657	0	0.007
   121	59.7941	0	0.007
   122	58.3727	0	0.007
   123	56.8469	0	0.007
   124	55.4855	0	0.007
   125	53.9829	0	0.007
   126	52.679	0	0.007
   127	51.1424	0	0.007
   128	49.5641	0	0.007
   129	48.0963	0	0.007
   130	46.5529	0	0.007
   131	45.0304	0	0.007
   132	43.4794	0	0.007
   133	41.8761	0	0.007
   134	40.2819	0	0.007
   135	38.6615	0	0.007
   136	37.0177	0	0.007
   137	35.3507	0	0.007
   138	33.6865	0	0.007
   139	31.9727	0	0.007
   140	30.2563	0	0.007
   141	28.5041	0	0.007
   142	26.773	0	0.007
   143	24.9567	0	0.007
   144	23.1663	0	0.007
   145	21.3188	0	0.007
   146	19.4434	0	0.007
   147	17.5302	0	0.007
   148	15.6112	0	0.007
   149	13.6747	0	0.007
   150	11.7686	0	0.007
   151	9.86813	0	0.007
   152	8.23034	0	0.007
   153	6.21556	0	0.007
   154	82.1988	0	0.007
   155	82.0014	0	0.007
   156	79.8314	0	0.007
   157	78.6678	0	0.007
   158	77.371	0	0.007
   159	76.2215	0	0.007
   160	75.0962	0	0.007
   161	73.4621	0	0.007
   162	72.5169	0	0.007
   163	71.1576	0	0.007
   164	69.9512	0	0.007
   165	68.5435	0	0.007
   166	67.0911	0	0.007
   167	65.9591	0	0.007
   168	64.7033	0	0.007
   169	63.1143	0	0.007
   170	61.8024	0	0.007
   171	60.5154	0	0.007
   172	59.0003	0	0.007
   173	57.725	0	0.007
   174	56.2316	0	0.007
   175	54.9329	0	0.007
   176	53.5994	0	0.007
   177	51.9179	0	0.007
   178	50.5192	0	0.007
   179	49.0452	0	0.007
   180	47.6296	0	0.007
   181	45.9608	0	0.007
   182	44.594	0	0.007
   183	43.0342	0	0.007
   184	41.4829	0	0.007
   185	39.8787	0	0.007
   186	38.2928	0	0.007
   187	36.6648	0	0.007
   188	35.0833	0	0.007
   189	33.4252	0	0.007
   190	31.7465	0	0.007
   191	30.0346	0	0.007
   192	28.3438	0	0.007
   193	26.6227	0	0.007
   194	24.8576	0	0.007
   195	23.0628	0	0.007
   196	21.2443	0	0.007
   197	19.3937	0	0.007
   198	17.5035	0	0.007
   199	15.6061	0	0.007
   200	13.6797	0	0.007
   201	11.7835	0	0.007
   202	9.90334	0	0.007
   203	8.42593	0	0.007
   204	6.25454	0	0.007
   205	80.0138	0	0.007
   206	78.9406	0	0.007
   207	77.8703	0	0.007
   208	76.1839	0	0.007
   209	75.3414	0	0.007
   210	74.2582	0	0.007
   211	73.133	0	0.007
   212	71.7238	0	0.007
   213	70.1409	0	0.007
   214	69.0332	0	0.007
   215	67.8358	0	0.007
   216	66.4167	0	0.007
   217	65.2263	0	0.007
   218	64.2171	0	0.007
   219	62.6798	0	0.007
   220	61.6156	0	0.007
   221	60.1658	0	0.007
   222	58.9872	0	0.007
   223	57.7526	0	0.007
   224	56.2007	0	0.007
   225	54.8144	0	0.007
   226	53.7332	0	0.007
   227	52.1939	0	0.007
   228	50.834	0	0.007
   229	49.3609	0	0.007
   230	47.8487	0	0.007
   231	46.5552	0	0.007
   232	45.0854	0	0.007
   233	43.6244	0	0.007
   234	42.1153	0	0.007
   235	40.7096	0	0.007
   236	39.1394	0	0.007
   237	37.5521	0	0.007
   238	36.0428	0	0.007
   239	34.419	0	0.007
   240	32.8682	0	0.007
   241	31.174	0	0.007
   242	29.5144	0	0.007
   243	27.9609	0	0.007
   244	26.2533	0	0.007
   245	24.5193	0	0.007
   246	22.7857	0	0.007
   247	21.0427	0	0.007
   248	19.2459	0	0.007
   249	17.4048	0	0.007
   250	15.5433	0	0.007
   251	13.6521	0	0.007
   252	11.7761	0	0.007
   253	9.92801	0	0.007
   254	8.82603	0	0.007
   255	6.28346	0	0.007


Date: Thu Mar 31 22:13:26 2022
Total elapsed time: 17750.423 seconds.

tnom = 27
temp = 27
method = modified trap
totiter = 65050792
traniter = 65050792
tranpoints = 15352200
accept = 11512800
rejected = 3839401
matrix size = 37
fillins = 7
solver = Normal
Matrix Compiler1: 2.01 KB object code size  0.3/0.2/[0.1]
Matrix Compiler2: 2.56 KB object code size  0.2/0.3/[0.1]

