Circuit: * C:\Users\user\Documents\LTspiceXVII\file\Montecarlo\monte_SiC.asc

Direct Newton iteration for .op point succeeded.
.step tol1=0
.step tol1=0.01
.step tol1=0.02
.step tol1=0.03
.step tol1=0.04
.step tol1=0.05
.step tol1=0.06
.step tol1=0.07
.step tol1=0.08
.step tol1=0.09
.step tol1=0.1
.step tol1=0.11
.step tol1=0.12
.step tol1=0.13
.step tol1=0.14
.step tol1=0.15
.step tol1=0.16
.step tol1=0.17
.step tol1=0.18
.step tol1=0.19
.step tol1=0.2
.step tol1=0.21
.step tol1=0.22
.step tol1=0.23
.step tol1=0.24
.step tol1=0.25
.step tol1=0.26
.step tol1=0.27
.step tol1=0.28
.step tol1=0.29
.step tol1=0.3
.step tol1=0.31
.step tol1=0.32
.step tol1=0.33
.step tol1=0.34
.step tol1=0.35
.step tol1=0.36
.step tol1=0.37
.step tol1=0.38
.step tol1=0.39
.step tol1=0.4
.step tol1=0.41
.step tol1=0.42
.step tol1=0.43
.step tol1=0.44
.step tol1=0.45
.step tol1=0.46
.step tol1=0.47
.step tol1=0.48
.step tol1=0.49
.step tol1=0.5
.step tol1=0.51
.step tol1=0.52
.step tol1=0.53
.step tol1=0.54
.step tol1=0.55
.step tol1=0.56
.step tol1=0.57
.step tol1=0.58
.step tol1=0.59
.step tol1=0.6
.step tol1=0.61
.step tol1=0.62
.step tol1=0.63
.step tol1=0.64
.step tol1=0.65
.step tol1=0.66
.step tol1=0.67
.step tol1=0.68
.step tol1=0.69
.step tol1=0.7
.step tol1=0.71
.step tol1=0.72
.step tol1=0.73
.step tol1=0.74
.step tol1=0.75
.step tol1=0.76
.step tol1=0.77
.step tol1=0.78
.step tol1=0.79
.step tol1=0.8
.step tol1=0.81
.step tol1=0.82
.step tol1=0.83
.step tol1=0.84
.step tol1=0.85
.step tol1=0.86
.step tol1=0.87
.step tol1=0.88
.step tol1=0.89
.step tol1=0.9
.step tol1=0.91
.step tol1=0.92
.step tol1=0.93
.step tol1=0.94
.step tol1=0.95
.step tol1=0.96
.step tol1=0.97
.step tol1=0.98
.step tol1=0.99
.step tol1=1


Measurement: imax
  step	MAX(-i(v1))	FROM	TO
     1	0.998033	0	0.0001
     2	0.998034	0	0.0001
     3	0.998034	0	0.0001
     4	0.998034	0	0.0001
     5	0.998036	0	0.0001
     6	0.998033	0	0.0001
     7	0.998034	0	0.0001
     8	0.998035	0	0.0001
     9	0.998034	0	0.0001
    10	0.998033	0	0.0001
    11	0.998033	0	0.0001
    12	0.998033	0	0.0001
    13	0.998034	0	0.0001
    14	0.998035	0	0.0001
    15	0.998036	0	0.0001
    16	0.998034	0	0.0001
    17	0.998034	0	0.0001
    18	0.998036	0	0.0001
    19	0.998034	0	0.0001
    20	0.998033	0	0.0001
    21	0.998033	0	0.0001
    22	0.998035	0	0.0001
    23	0.998034	0	0.0001
    24	0.998033	0	0.0001
    25	0.998034	0	0.0001
    26	0.998033	0	0.0001
    27	0.998033	0	0.0001
    28	0.998034	0	0.0001
    29	0.998034	0	0.0001
    30	0.998033	0	0.0001
    31	0.998034	0	0.0001
    32	0.998035	0	0.0001
    33	0.998035	0	0.0001
    34	0.998033	0	0.0001
    35	0.998033	0	0.0001
    36	0.998035	0	0.0001
    37	0.998034	0	0.0001
    38	0.998033	0	0.0001
    39	0.998034	0	0.0001
    40	0.998034	0	0.0001
    41	0.998033	0	0.0001
    42	0.998035	0	0.0001
    43	0.998033	0	0.0001
    44	0.998033	0	0.0001
    45	0.998037	0	0.0001
    46	0.998034	0	0.0001
    47	0.998033	0	0.0001
    48	0.998034	0	0.0001
    49	0.998034	0	0.0001
    50	0.998033	0	0.0001
    51	0.998034	0	0.0001
    52	0.998034	0	0.0001
    53	0.998034	0	0.0001
    54	0.998037	0	0.0001
    55	0.998036	0	0.0001
    56	0.998033	0	0.0001
    57	0.998034	0	0.0001
    58	0.998034	0	0.0001
    59	0.998034	0	0.0001
    60	0.998034	0	0.0001
    61	0.998033	0	0.0001
    62	0.998034	0	0.0001
    63	0.998035	0	0.0001
    64	0.998034	0	0.0001
    65	0.998034	0	0.0001
    66	0.998033	0	0.0001
    67	0.998034	0	0.0001
    68	0.998035	0	0.0001
    69	0.998034	0	0.0001
    70	0.998033	0	0.0001
    71	0.998034	0	0.0001
    72	0.998037	0	0.0001
    73	0.998034	0	0.0001
    74	0.998033	0	0.0001
    75	0.998033	0	0.0001
    76	0.998033	0	0.0001
    77	0.998035	0	0.0001
    78	0.998034	0	0.0001
    79	0.998035	0	0.0001
    80	0.998033	0	0.0001
    81	0.998034	0	0.0001
    82	0.998034	0	0.0001
    83	0.998033	0	0.0001
    84	0.998033	0	0.0001
    85	0.998034	0	0.0001
    86	0.998037	0	0.0001
    87	0.998037	0	0.0001
    88	0.998033	0	0.0001
    89	0.998033	0	0.0001
    90	0.998035	0	0.0001
    91	0.998033	0	0.0001
    92	0.998033	0	0.0001
    93	0.998033	0	0.0001
    94	0.998035	0	0.0001
    95	0.998034	0	0.0001
    96	0.998034	0	0.0001
    97	0.998035	0	0.0001
    98	0.998034	0	0.0001
    99	0.998033	0	0.0001
   100	0.998035	0	0.0001
   101	0.998035	0	0.0001

Measurement: tr1
  step	tr1	FROM	TO
     1	1.46403e-007	2.01363e-005	2.02827e-005
     2	1.46981e-007	2.01363e-005	2.02833e-005
     3	1.47554e-007	2.01364e-005	2.0284e-005
     4	1.48123e-007	2.01365e-005	2.02846e-005
     5	1.48689e-007	2.01365e-005	2.02852e-005
     6	1.49251e-007	2.01366e-005	2.02859e-005
     7	1.49809e-007	2.01367e-005	2.02865e-005
     8	1.5034e-007	2.01367e-005	2.02871e-005
     9	1.50885e-007	2.01368e-005	2.02877e-005
    10	1.51239e-007	2.01369e-005	2.02881e-005
    11	1.51776e-007	2.01369e-005	2.02887e-005
    12	1.5231e-007	2.0137e-005	2.02893e-005
    13	1.5284e-007	2.0137e-005	2.02899e-005
    14	1.53368e-007	2.01371e-005	2.02905e-005
    15	1.53901e-007	2.01372e-005	2.02911e-005
    16	1.54433e-007	2.01372e-005	2.02917e-005
    17	1.54962e-007	2.01373e-005	2.02923e-005
    18	1.55489e-007	2.01373e-005	2.02928e-005
    19	1.56012e-007	2.01374e-005	2.02934e-005
    20	1.56686e-007	2.01375e-005	2.02942e-005
    21	1.57208e-007	2.01375e-005	2.02947e-005
    22	1.57728e-007	2.01376e-005	2.02953e-005
    23	1.58243e-007	2.01376e-005	2.02959e-005
    24	1.58756e-007	2.01377e-005	2.02965e-005
    25	1.59266e-007	2.01378e-005	2.0297e-005
    26	1.59773e-007	2.01378e-005	2.02976e-005
    27	1.60278e-007	2.01379e-005	2.02982e-005
    28	1.60617e-007	2.01379e-005	2.02986e-005
    29	1.6113e-007	2.0138e-005	2.02991e-005
    30	1.61639e-007	2.01381e-005	2.02997e-005
    31	1.62144e-007	2.01381e-005	2.03003e-005
    32	1.62645e-007	2.01382e-005	2.03008e-005
    33	1.63143e-007	2.01382e-005	2.03014e-005
    34	1.63638e-007	2.01383e-005	2.03019e-005
    35	1.6413e-007	2.01383e-005	2.03025e-005
    36	1.64912e-007	2.01384e-005	2.03033e-005
    37	1.65105e-007	2.01385e-005	2.03036e-005
    38	1.65588e-007	2.01385e-005	2.03041e-005
    39	1.66069e-007	2.01386e-005	2.03046e-005
    40	1.66413e-007	2.01386e-005	2.0305e-005
    41	1.6689e-007	2.01387e-005	2.03056e-005
    42	1.67366e-007	2.01387e-005	2.03061e-005
    43	1.67832e-007	2.01388e-005	2.03066e-005
    44	1.68292e-007	2.01389e-005	2.03071e-005
    45	1.69109e-007	2.01389e-005	2.0308e-005
    46	1.69569e-007	2.0139e-005	2.03085e-005
    47	1.70027e-007	2.0139e-005	2.0309e-005
    48	1.70482e-007	2.01391e-005	2.03096e-005
    49	1.70812e-007	2.01391e-005	2.03099e-005
    50	1.71269e-007	2.01392e-005	2.03104e-005
    51	1.71718e-007	2.01392e-005	2.0311e-005
    52	1.72163e-007	2.01393e-005	2.03115e-005
    53	1.72605e-007	2.01393e-005	2.03119e-005
    54	1.72673e-007	2.01394e-005	2.03121e-005
    55	1.73105e-007	2.01394e-005	2.03126e-005
    56	1.73533e-007	2.01395e-005	2.0313e-005
    57	1.74348e-007	2.01396e-005	2.03139e-005
    58	1.74386e-007	2.01396e-005	2.0314e-005
    59	1.75204e-007	2.01397e-005	2.03149e-005
    60	1.75629e-007	2.01397e-005	2.03153e-005
    61	1.76051e-007	2.01398e-005	2.03158e-005
    62	1.76063e-007	2.01398e-005	2.03159e-005
    63	1.76477e-007	2.01399e-005	2.03163e-005
    64	1.76932e-007	2.01399e-005	2.03169e-005
    65	1.77387e-007	2.014e-005	2.03174e-005
    66	1.77839e-007	2.014e-005	2.03179e-005
    67	1.78288e-007	2.01401e-005	2.03184e-005
    68	1.78733e-007	2.01401e-005	2.03189e-005
    69	1.79174e-007	2.01402e-005	2.03194e-005
    70	1.79756e-007	2.01402e-005	2.032e-005
    71	1.78722e-007	2.01403e-005	2.0319e-005
    72	1.7902e-007	2.01403e-005	2.03193e-005
    73	1.79329e-007	2.01404e-005	2.03197e-005
    74	1.79643e-007	2.01404e-005	2.03201e-005
    75	1.79958e-007	2.01405e-005	2.03204e-005
    76	1.80274e-007	2.01405e-005	2.03208e-005
    77	1.81081e-007	2.01406e-005	2.03217e-005
    78	1.80906e-007	2.01406e-005	2.03215e-005
    79	1.81704e-007	2.01407e-005	2.03224e-005
    80	1.81538e-007	2.01407e-005	2.03223e-005
    81	1.81854e-007	2.01408e-005	2.03226e-005
    82	1.82169e-007	2.01408e-005	2.0323e-005
    83	1.82484e-007	2.01409e-005	2.03234e-005
    84	1.83293e-007	2.01409e-005	2.03242e-005
    85	1.83609e-007	2.0141e-005	2.03246e-005
    86	1.83925e-007	2.0141e-005	2.0325e-005
    87	1.84239e-007	2.01411e-005	2.03253e-005
    88	1.84551e-007	2.01411e-005	2.03257e-005
    89	1.84864e-007	2.01412e-005	2.0326e-005
    90	1.85177e-007	2.01412e-005	2.03264e-005
    91	1.85489e-007	2.01413e-005	2.03268e-005
    92	1.858e-007	2.01413e-005	2.03271e-005
    93	1.86111e-007	2.01414e-005	2.03275e-005
    94	1.86424e-007	2.01414e-005	2.03278e-005
    95	1.86733e-007	2.01415e-005	2.03282e-005
    96	1.87189e-007	2.01415e-005	2.03287e-005
    97	1.87485e-007	2.01416e-005	2.0329e-005
    98	1.87752e-007	2.01416e-005	2.03294e-005
    99	1.8806e-007	2.01417e-005	2.03297e-005
   100	1.88376e-007	2.01417e-005	2.03301e-005
   101	1.88695e-007	2.01417e-005	2.03304e-005

Measurement: tr2
  step	tr2	FROM	TO
     1	4.44971e-007	6.13959e-005	6.18409e-005
     2	4.39208e-007	6.13905e-005	6.18297e-005
     3	4.45513e-007	6.13842e-005	6.18297e-005
     4	4.41096e-007	6.13784e-005	6.18195e-005
     5	4.37656e-007	6.13729e-005	6.18105e-005
     6	4.3987e-007	6.13675e-005	6.18074e-005
     7	4.45326e-007	6.13628e-005	6.18081e-005
     8	4.55485e-007	6.13579e-005	6.18134e-005
     9	4.53849e-007	6.13531e-005	6.1807e-005
    10	4.47472e-007	6.1347e-005	6.17945e-005
    11	4.4826e-007	6.13424e-005	6.17906e-005
    12	4.50163e-007	6.13375e-005	6.17877e-005
    13	4.50135e-007	6.13328e-005	6.17829e-005
    14	4.51812e-007	6.1328e-005	6.17798e-005
    15	4.53443e-007	6.13239e-005	6.17774e-005
    16	4.60649e-007	6.13198e-005	6.17805e-005
    17	4.58696e-007	6.13151e-005	6.17738e-005
    18	4.5727e-007	6.13103e-005	6.17676e-005
    19	4.59547e-007	6.13063e-005	6.17659e-005
    20	4.61758e-007	6.13017e-005	6.17634e-005
    21	4.70755e-007	6.1298e-005	6.17688e-005
    22	4.6616e-007	6.1294e-005	6.17601e-005
    23	4.68319e-007	6.12902e-005	6.17585e-005
    24	4.75559e-007	6.12861e-005	6.17617e-005
    25	4.76669e-007	6.12823e-005	6.17589e-005
    26	4.78966e-007	6.12785e-005	6.17574e-005
    27	4.81115e-007	6.12748e-005	6.17559e-005
    28	4.88548e-007	6.12712e-005	6.17597e-005
    29	4.81012e-007	6.12675e-005	6.17485e-005
    30	4.86702e-007	6.12641e-005	6.17508e-005
    31	4.85044e-007	6.12603e-005	6.17453e-005
    32	4.9196e-007	6.12575e-005	6.17494e-005
    33	4.88506e-007	6.12541e-005	6.17426e-005
    34	4.90256e-007	6.12501e-005	6.17404e-005
    35	4.83148e-007	6.12466e-005	6.17298e-005
    36	4.89926e-007	6.12438e-005	6.17338e-005
    37	4.9242e-007	6.12402e-005	6.17326e-005
    38	5.0095e-007	6.1237e-005	6.17379e-005
    39	5.02146e-007	6.12343e-005	6.17364e-005
    40	5.0224e-007	6.12313e-005	6.17335e-005
    41	5.04757e-007	6.12279e-005	6.17327e-005
    42	5.04499e-007	6.12256e-005	6.17301e-005
    43	5.07068e-007	6.12221e-005	6.17291e-005
    44	5.08266e-007	6.1219e-005	6.17273e-005
    45	5.07366e-007	6.12167e-005	6.1724e-005
    46	5.09246e-007	6.12139e-005	6.17231e-005
    47	5.0156e-007	6.12111e-005	6.17126e-005
    48	5.04442e-007	6.12086e-005	6.17131e-005
    49	5.11238e-007	6.12056e-005	6.17169e-005
    50	5.13745e-007	6.12025e-005	6.17162e-005
    51	5.12809e-007	6.12005e-005	6.17133e-005
    52	5.07714e-007	6.11979e-005	6.17057e-005
    53	5.14217e-007	6.11953e-005	6.17096e-005
    54	5.15119e-007	6.11924e-005	6.17075e-005
    55	5.15849e-007	6.11902e-005	6.1706e-005
    56	5.1537e-007	6.11874e-005	6.17028e-005
    57	5.0783e-007	6.11856e-005	6.16934e-005
    58	5.12042e-007	6.11833e-005	6.16953e-005
    59	5.1836e-007	6.11804e-005	6.16988e-005
    60	5.19041e-007	6.11781e-005	6.16971e-005
    61	5.16135e-007	6.11758e-005	6.16919e-005
    62	5.15863e-007	6.1174e-005	6.16899e-005
    63	5.15736e-007	6.11718e-005	6.16875e-005
    64	5.19149e-007	6.11694e-005	6.16885e-005
    65	5.16863e-007	6.11675e-005	6.16843e-005
    66	5.17983e-007	6.11648e-005	6.16828e-005
    67	5.18157e-007	6.11631e-005	6.16812e-005
    68	5.19234e-007	6.11607e-005	6.16799e-005
    69	5.20383e-007	6.11589e-005	6.16793e-005
    70	5.21139e-007	6.11565e-005	6.16776e-005
    71	5.22095e-007	6.11549e-005	6.1677e-005
    72	5.23042e-007	6.11525e-005	6.16755e-005
    73	5.28827e-007	6.11505e-005	6.16794e-005
    74	5.2518e-007	6.11485e-005	6.16737e-005
    75	5.26292e-007	6.11466e-005	6.16729e-005
    76	5.29744e-007	6.11443e-005	6.16741e-005
    77	5.30434e-007	6.11425e-005	6.16729e-005
    78	5.31403e-007	6.11409e-005	6.16723e-005
    79	5.32203e-007	6.11387e-005	6.16709e-005
    80	5.32685e-007	6.11371e-005	6.16698e-005
    81	5.3247e-007	6.11357e-005	6.16681e-005
    82	5.39727e-007	6.11339e-005	6.16736e-005
    83	5.35434e-007	6.11315e-005	6.16669e-005
    84	5.36409e-007	6.11298e-005	6.16662e-005
    85	5.39055e-007	6.11284e-005	6.16674e-005
    86	5.38236e-007	6.11267e-005	6.16649e-005
    87	5.45344e-007	6.11253e-005	6.16706e-005
    88	5.39639e-007	6.1123e-005	6.16626e-005
    89	5.40665e-007	6.11213e-005	6.1662e-005
    90	5.56839e-007	6.11197e-005	6.16766e-005
    91	5.57775e-007	6.11179e-005	6.16757e-005
    92	5.56255e-007	6.11161e-005	6.16724e-005
    93	5.44924e-007	6.11149e-005	6.16599e-005
    94	5.59238e-007	6.11131e-005	6.16723e-005
    95	5.46751e-007	6.11118e-005	6.16586e-005
    96	5.50945e-007	6.11107e-005	6.16616e-005
    97	5.52277e-007	6.11082e-005	6.16605e-005
    98	5.51442e-007	6.11076e-005	6.1659e-005
    99	5.63458e-007	6.11055e-005	6.16689e-005
   100	5.53523e-007	6.1104e-005	6.16575e-005
   101	5.6582e-007	6.11029e-005	6.16688e-005

Measurement: vth
  step	v(n004)	at
     1	2.66435	2.01953e-005
     2	2.66433	2.01956e-005
     3	2.6643	2.01959e-005
     4	2.66427	2.01962e-005
     5	2.66425	2.01965e-005
     6	2.66422	2.01968e-005
     7	2.6642	2.0197e-005
     8	2.66418	2.01973e-005
     9	2.66416	2.01976e-005
    10	2.66413	2.01979e-005
    11	2.66411	2.01982e-005
    12	2.66409	2.01984e-005
    13	2.66408	2.01987e-005
    14	2.66406	2.0199e-005
    15	2.66404	2.01992e-005
    16	2.66403	2.01995e-005
    17	2.66402	2.01998e-005
    18	2.66401	2.02e-005
    19	2.664	2.02003e-005
    20	2.66403	2.02005e-005
    21	2.66402	2.02007e-005
    22	2.66402	2.0201e-005
    23	2.66401	2.02012e-005
    24	2.66401	2.02015e-005
    25	2.664	2.02017e-005
    26	2.664	2.0202e-005
    27	2.664	2.02022e-005
    28	2.66413	2.02025e-005
    29	2.66412	2.02027e-005
    30	2.66412	2.02029e-005
    31	2.66412	2.02032e-005
    32	2.66412	2.02034e-005
    33	2.66412	2.02036e-005
    34	2.66412	2.02039e-005
    35	2.66412	2.02041e-005
    36	2.66412	2.02043e-005
    37	2.66413	2.02046e-005
    38	2.66413	2.02048e-005
    39	2.66413	2.0205e-005
    40	2.66414	2.02053e-005
    41	2.66415	2.02055e-005
    42	2.66415	2.02057e-005
    43	2.66416	2.02059e-005
    44	2.66416	2.02061e-005
    45	2.66417	2.02064e-005
    46	2.66417	2.02066e-005
    47	2.66418	2.02068e-005
    48	2.66419	2.0207e-005
    49	2.66416	2.02073e-005
    50	2.66417	2.02075e-005
    51	2.66418	2.02077e-005
    52	2.66418	2.02079e-005
    53	2.66419	2.02082e-005
    54	2.6642	2.02084e-005
    55	2.66421	2.02086e-005
    56	2.66422	2.02088e-005
    57	2.66423	2.0209e-005
    58	2.66424	2.02092e-005
    59	2.66425	2.02094e-005
    60	2.66426	2.02096e-005
    61	2.66427	2.02099e-005
    62	2.66428	2.02101e-005
    63	2.66429	2.02103e-005
    64	2.66431	2.02105e-005
    65	2.66433	2.02106e-005
    66	2.66434	2.02108e-005
    67	2.66436	2.0211e-005
    68	2.66438	2.02112e-005
    69	2.6644	2.02114e-005
    70	2.66435	2.02117e-005
    71	2.66431	2.02119e-005
    72	2.66426	2.02122e-005
    73	2.66423	2.02124e-005
    74	2.66419	2.02126e-005
    75	2.66416	2.02129e-005
    76	2.66412	2.02131e-005
    77	2.66409	2.02133e-005
    78	2.66405	2.02135e-005
    79	2.66402	2.02137e-005
    80	2.66399	2.0214e-005
    81	2.66396	2.02142e-005
    82	2.66393	2.02144e-005
    83	2.6639	2.02146e-005
    84	2.66387	2.02148e-005
    85	2.66384	2.0215e-005
    86	2.66382	2.02153e-005
    87	2.66379	2.02155e-005
    88	2.66376	2.02157e-005
    89	2.66374	2.02159e-005
    90	2.66371	2.02161e-005
    91	2.66369	2.02163e-005
    92	2.66366	2.02165e-005
    93	2.66364	2.02167e-005
    94	2.66361	2.02169e-005
    95	2.66359	2.02171e-005
    96	2.66346	2.02173e-005
    97	2.66344	2.02175e-005
    98	2.66342	2.02177e-005
    99	2.6634	2.02179e-005
   100	2.66338	2.02181e-005
   101	2.66336	2.02183e-005


Date: Tue Mar 22 14:29:15 2022
Total elapsed time: 1.271 seconds.

tnom = 27
temp = 27
method = modified trap
totiter = 2445
traniter = 2416
tranpoints = 1167
accept = 1124
rejected = 43
matrix size = 11
fillins = 0
solver = Normal
Matrix Compiler1: 674 bytes object code size  0.1/0.1/[0.0]
Matrix Compiler2: 847 bytes object code size  0.1/0.1/[0.1]

