Circuit: * C:\Users\user\Documents\LTspiceXVII\file\Montecarlo\monte_SiC.asc

Direct Newton iteration for .op point succeeded.
.step tol1=0
.step tol1=0.01
.step tol1=0.02
.step tol1=0.03
.step tol1=0.04
.step tol1=0.05
.step tol1=0.06
.step tol1=0.07
.step tol1=0.08
.step tol1=0.09
.step tol1=0.1
.step tol1=0.11
.step tol1=0.12
.step tol1=0.13
.step tol1=0.14
.step tol1=0.15
.step tol1=0.16
.step tol1=0.17
.step tol1=0.18
.step tol1=0.19
.step tol1=0.2
.step tol1=0.21
.step tol1=0.22
.step tol1=0.23
.step tol1=0.24
.step tol1=0.25
.step tol1=0.26
.step tol1=0.27
.step tol1=0.28
.step tol1=0.29
.step tol1=0.3
.step tol1=0.31
.step tol1=0.32
.step tol1=0.33
.step tol1=0.34
.step tol1=0.35
.step tol1=0.36
.step tol1=0.37
.step tol1=0.38
.step tol1=0.39
.step tol1=0.4
.step tol1=0.41
.step tol1=0.42
.step tol1=0.43
.step tol1=0.44
.step tol1=0.45
.step tol1=0.46
.step tol1=0.47
.step tol1=0.48
.step tol1=0.49
.step tol1=0.5
.step tol1=0.51
.step tol1=0.52
.step tol1=0.53
.step tol1=0.54
.step tol1=0.55
.step tol1=0.56
.step tol1=0.57
.step tol1=0.58
.step tol1=0.59
.step tol1=0.6
.step tol1=0.61
.step tol1=0.62
.step tol1=0.63
.step tol1=0.64
.step tol1=0.65
.step tol1=0.66
.step tol1=0.67
.step tol1=0.68
.step tol1=0.69
.step tol1=0.7
.step tol1=0.71
.step tol1=0.72
.step tol1=0.73
.step tol1=0.74
.step tol1=0.75
.step tol1=0.76
.step tol1=0.77
.step tol1=0.78
.step tol1=0.79
.step tol1=0.8
.step tol1=0.81
.step tol1=0.82
.step tol1=0.83
.step tol1=0.84
.step tol1=0.85
.step tol1=0.86
.step tol1=0.87
.step tol1=0.88
.step tol1=0.89
.step tol1=0.9
.step tol1=0.91
.step tol1=0.92
.step tol1=0.93
.step tol1=0.94
.step tol1=0.95
.step tol1=0.96
.step tol1=0.97
.step tol1=0.98
.step tol1=0.99
.step tol1=1


Measurement: imax
  step	MAX(-i(v1))	FROM	TO
     1	0.998033	0	0.0001
     2	0.998036	0	0.0001
     3	0.998034	0	0.0001
     4	0.998033	0	0.0001
     5	0.998036	0	0.0001
     6	0.998034	0	0.0001
     7	0.998034	0	0.0001
     8	0.998035	0	0.0001
     9	0.998034	0	0.0001
    10	0.998034	0	0.0001
    11	0.998033	0	0.0001
    12	0.998033	0	0.0001
    13	0.998034	0	0.0001
    14	0.998034	0	0.0001
    15	0.998033	0	0.0001
    16	0.998033	0	0.0001
    17	0.998034	0	0.0001
    18	0.998034	0	0.0001
    19	0.998035	0	0.0001
    20	0.998035	0	0.0001
    21	0.998035	0	0.0001
    22	0.998035	0	0.0001
    23	0.998033	0	0.0001
    24	0.998034	0	0.0001
    25	0.998034	0	0.0001
    26	0.998034	0	0.0001
    27	0.998034	0	0.0001
    28	0.998034	0	0.0001
    29	0.998035	0	0.0001
    30	0.998035	0	0.0001
    31	0.998035	0	0.0001
    32	0.998036	0	0.0001
    33	0.998033	0	0.0001
    34	0.998035	0	0.0001
    35	0.998034	0	0.0001
    36	0.998034	0	0.0001
    37	0.998034	0	0.0001
    38	0.998036	0	0.0001
    39	0.998036	0	0.0001
    40	0.998036	0	0.0001
    41	0.998034	0	0.0001
    42	0.998034	0	0.0001
    43	0.998033	0	0.0001
    44	0.998033	0	0.0001
    45	0.998034	0	0.0001
    46	0.998034	0	0.0001
    47	0.998034	0	0.0001
    48	0.998036	0	0.0001
    49	0.998034	0	0.0001
    50	0.998034	0	0.0001
    51	0.998033	0	0.0001
    52	0.998033	0	0.0001
    53	0.998036	0	0.0001
    54	0.998035	0	0.0001
    55	0.998036	0	0.0001
    56	0.998036	0	0.0001
    57	0.998034	0	0.0001
    58	0.998033	0	0.0001
    59	0.998036	0	0.0001
    60	0.998034	0	0.0001
    61	0.998035	0	0.0001
    62	0.998034	0	0.0001
    63	0.998034	0	0.0001
    64	0.998034	0	0.0001
    65	0.998036	0	0.0001
    66	0.998036	0	0.0001
    67	0.998035	0	0.0001
    68	0.998033	0	0.0001
    69	0.998036	0	0.0001
    70	0.998034	0	0.0001
    71	0.998035	0	0.0001
    72	0.998034	0	0.0001
    73	0.998035	0	0.0001
    74	0.998035	0	0.0001
    75	0.998034	0	0.0001
    76	0.998034	0	0.0001
    77	0.998034	0	0.0001
    78	0.998034	0	0.0001
    79	0.998034	0	0.0001
    80	0.998035	0	0.0001
    81	0.998034	0	0.0001
    82	0.998034	0	0.0001
    83	0.998033	0	0.0001
    84	0.998034	0	0.0001
    85	0.998035	0	0.0001
    86	0.998036	0	0.0001
    87	0.998035	0	0.0001
    88	0.998035	0	0.0001
    89	0.998035	0	0.0001
    90	0.998034	0	0.0001
    91	0.998034	0	0.0001
    92	0.998035	0	0.0001
    93	0.998035	0	0.0001
    94	0.998035	0	0.0001
    95	0.998034	0	0.0001
    96	0.998034	0	0.0001
    97	0.998034	0	0.0001
    98	0.998036	0	0.0001
    99	0.998034	0	0.0001
   100	0.998036	0	0.0001
   101	0.998036	0	0.0001

Measurement: tr1
  step	tr1	FROM	TO
     1	1.46403e-007	2.01363e-005	2.02827e-005
     2	1.46726e-007	2.01363e-005	2.0283e-005
     3	1.47012e-007	2.01363e-005	2.02833e-005
     4	1.47442e-007	2.01363e-005	2.02838e-005
     5	1.4775e-007	2.01364e-005	2.02841e-005
     6	1.48053e-007	2.01364e-005	2.02844e-005
     7	1.48219e-007	2.01364e-005	2.02846e-005
     8	1.48158e-007	2.01364e-005	2.02846e-005
     9	1.48421e-007	2.01365e-005	2.02849e-005
    10	1.49333e-007	2.01365e-005	2.02858e-005
    11	1.49683e-007	2.01365e-005	2.02862e-005
    12	1.48927e-007	2.01365e-005	2.02855e-005
    13	1.48898e-007	2.01366e-005	2.02855e-005
    14	1.48911e-007	2.01366e-005	2.02855e-005
    15	1.48977e-007	2.01366e-005	2.02856e-005
    16	1.50461e-007	2.01367e-005	2.02871e-005
    17	1.50919e-007	2.01367e-005	2.02876e-005
    18	1.51388e-007	2.01367e-005	2.02881e-005
    19	1.50412e-007	2.01368e-005	2.02872e-005
    20	1.50527e-007	2.01369e-005	2.02874e-005
    21	1.5064e-007	2.01369e-005	2.02875e-005
    22	1.5075e-007	2.01369e-005	2.02877e-005
    23	1.50693e-007	2.0137e-005	2.02877e-005
    24	1.50807e-007	2.0137e-005	2.02878e-005
    25	1.50917e-007	2.01371e-005	2.0288e-005
    26	1.51026e-007	2.01371e-005	2.02881e-005
    27	1.51132e-007	2.01371e-005	2.02883e-005
    28	1.51235e-007	2.01372e-005	2.02884e-005
    29	1.51337e-007	2.01372e-005	2.02885e-005
    30	1.51436e-007	2.01372e-005	2.02887e-005
    31	1.51533e-007	2.01373e-005	2.02888e-005
    32	1.51628e-007	2.01373e-005	2.02889e-005
    33	1.5172e-007	2.01374e-005	2.02891e-005
    34	1.51811e-007	2.01374e-005	2.02892e-005
    35	1.51921e-007	2.01374e-005	2.02893e-005
    36	1.52064e-007	2.01374e-005	2.02895e-005
    37	1.52249e-007	2.01374e-005	2.02896e-005
    38	1.52666e-007	2.01369e-005	2.02896e-005
    39	1.52804e-007	2.0137e-005	2.02898e-005
    40	1.5294e-007	2.0137e-005	2.029e-005
    41	1.53074e-007	2.01371e-005	2.02902e-005
    42	1.53208e-007	2.01371e-005	2.02903e-005
    43	1.5334e-007	2.01372e-005	2.02905e-005
    44	1.5347e-007	2.01372e-005	2.02907e-005
    45	1.53831e-007	2.01373e-005	2.02911e-005
    46	1.53983e-007	2.01373e-005	2.02913e-005
    47	1.54135e-007	2.01374e-005	2.02915e-005
    48	1.54287e-007	2.01374e-005	2.02917e-005
    49	1.54437e-007	2.01375e-005	2.02919e-005
    50	1.54588e-007	2.01375e-005	2.02921e-005
    51	1.54739e-007	2.01376e-005	2.02923e-005
    52	1.5489e-007	2.01376e-005	2.02925e-005
    53	1.55042e-007	2.01377e-005	2.02927e-005
    54	1.55193e-007	2.01377e-005	2.02929e-005
    55	1.55343e-007	2.01378e-005	2.02931e-005
    56	1.55493e-007	2.01378e-005	2.02933e-005
    57	1.55642e-007	2.01378e-005	2.02935e-005
    58	1.56077e-007	2.01379e-005	2.02939e-005
    59	1.56265e-007	2.01379e-005	2.02942e-005
    60	1.56452e-007	2.01379e-005	2.02944e-005
    61	1.56639e-007	2.0138e-005	2.02946e-005
    62	1.56827e-007	2.0138e-005	2.02949e-005
    63	1.57013e-007	2.01381e-005	2.02951e-005
    64	1.57199e-007	2.01381e-005	2.02953e-005
    65	1.58041e-007	2.01384e-005	2.02965e-005
    66	1.58036e-007	2.01383e-005	2.02964e-005
    67	1.5777e-007	2.01383e-005	2.02961e-005
    68	1.57207e-007	2.01384e-005	2.02956e-005
    69	1.58326e-007	2.01384e-005	2.02967e-005
    70	1.57515e-007	2.01385e-005	2.0296e-005
    71	1.57838e-007	2.01384e-005	2.02963e-005
    72	1.58118e-007	2.01384e-005	2.02965e-005
    73	1.61716e-007	2.01385e-005	2.03002e-005
    74	1.59371e-007	2.01386e-005	2.0298e-005
    75	1.63384e-007	2.01386e-005	2.0302e-005
    76	1.58812e-007	2.01387e-005	2.02975e-005
    77	1.64793e-007	2.01387e-005	2.03035e-005
    78	1.59063e-007	2.01387e-005	2.02978e-005
    79	1.59455e-007	2.01387e-005	2.02982e-005
    80	1.59487e-007	2.01387e-005	2.02982e-005
    81	1.59864e-007	2.01388e-005	2.02986e-005
    82	1.60106e-007	2.01388e-005	2.02989e-005
    83	1.6346e-007	2.01389e-005	2.03023e-005
    84	1.60305e-007	2.01389e-005	2.02992e-005
    85	1.60621e-007	2.01389e-005	2.02996e-005
    86	1.60691e-007	2.0139e-005	2.02997e-005
    87	1.60997e-007	2.01391e-005	2.03001e-005
    88	1.65501e-007	2.01391e-005	2.03046e-005
    89	1.66097e-007	2.01391e-005	2.03052e-005
    90	1.6586e-007	2.01392e-005	2.0305e-005
    91	1.66054e-007	2.01392e-005	2.03053e-005
    92	1.65984e-007	2.01392e-005	2.03052e-005
    93	1.6659e-007	2.01394e-005	2.0306e-005
    94	1.62118e-007	2.01393e-005	2.03014e-005
    95	1.6638e-007	2.01395e-005	2.03058e-005
    96	1.66985e-007	2.01394e-005	2.03064e-005
    97	1.67652e-007	2.01394e-005	2.03071e-005
    98	1.67808e-007	2.01395e-005	2.03073e-005
    99	1.67961e-007	2.01395e-005	2.03075e-005
   100	1.68112e-007	2.01396e-005	2.03077e-005
   101	1.68255e-007	2.01396e-005	2.03079e-005

Measurement: tr2
  step	tr2	FROM	TO
     1	4.44971e-007	6.13959e-005	6.18409e-005
     2	4.36203e-007	6.13961e-005	6.18324e-005
     3	4.46584e-007	6.13961e-005	6.18427e-005
     4	4.48299e-007	6.13964e-005	6.18447e-005
     5	4.43455e-007	6.13966e-005	6.18401e-005
     6	4.41638e-007	6.13971e-005	6.18388e-005
     7	4.37255e-007	6.13966e-005	6.18339e-005
     8	4.44971e-007	6.13975e-005	6.18425e-005
     9	4.51286e-007	6.1397e-005	6.18483e-005
    10	4.46469e-007	6.13977e-005	6.18441e-005
    11	4.53189e-007	6.13975e-005	6.18507e-005
    12	4.54159e-007	6.13976e-005	6.18518e-005
    13	4.49773e-007	6.13976e-005	6.18473e-005
    14	4.414e-007	6.13974e-005	6.18388e-005
    15	4.49337e-007	6.13979e-005	6.18472e-005
    16	4.49452e-007	6.1398e-005	6.18475e-005
    17	4.5498e-007	6.13983e-005	6.18533e-005
    18	4.48691e-007	6.13985e-005	6.18472e-005
    19	4.49245e-007	6.13987e-005	6.18479e-005
    20	4.43838e-007	6.1398e-005	6.18419e-005
    21	4.50259e-007	6.13984e-005	6.18487e-005
    22	4.50288e-007	6.13985e-005	6.18488e-005
    23	4.5065e-007	6.13985e-005	6.18492e-005
    24	4.57096e-007	6.13992e-005	6.18563e-005
    25	4.52073e-007	6.13988e-005	6.18509e-005
    26	4.49968e-007	6.13994e-005	6.18494e-005
    27	4.49269e-007	6.13991e-005	6.18484e-005
    28	4.48883e-007	6.13994e-005	6.18483e-005
    29	4.56483e-007	6.13999e-005	6.18564e-005
    30	4.55983e-007	6.13994e-005	6.18554e-005
    31	4.55923e-007	6.13999e-005	6.18558e-005
    32	4.56678e-007	6.14e-005	6.18567e-005
    33	4.56875e-007	6.13997e-005	6.18566e-005
    34	4.48385e-007	6.14002e-005	6.18485e-005
    35	4.53662e-007	6.14005e-005	6.18541e-005
    36	4.57113e-007	6.14003e-005	6.18574e-005
    37	4.57211e-007	6.14005e-005	6.18577e-005
    38	4.57083e-007	6.14006e-005	6.18577e-005
    39	4.53867e-007	6.14006e-005	6.18544e-005
    40	4.53296e-007	6.14007e-005	6.1854e-005
    41	4.55374e-007	6.14011e-005	6.18565e-005
    42	4.54028e-007	6.14012e-005	6.18552e-005
    43	4.55221e-007	6.14007e-005	6.18559e-005
    44	4.54873e-007	6.14008e-005	6.18556e-005
    45	4.56889e-007	6.14012e-005	6.18581e-005
    46	4.57429e-007	6.14012e-005	6.18586e-005
    47	4.63149e-007	6.14013e-005	6.18645e-005
    48	4.55542e-007	6.14019e-005	6.18574e-005
    49	4.61717e-007	6.14027e-005	6.18644e-005
    50	4.61064e-007	6.14018e-005	6.18629e-005
    51	4.58133e-007	6.14019e-005	6.18601e-005
    52	4.61129e-007	6.14018e-005	6.18629e-005
    53	4.74122e-007	6.14023e-005	6.18764e-005
    54	4.64146e-007	6.14024e-005	6.18666e-005
    55	4.61923e-007	6.14029e-005	6.18648e-005
    56	4.63354e-007	6.14027e-005	6.18661e-005
    57	4.60981e-007	6.14032e-005	6.18642e-005
    58	4.72424e-007	6.14029e-005	6.18753e-005
    59	4.76064e-007	6.1403e-005	6.18791e-005
    60	4.72217e-007	6.14036e-005	6.18758e-005
    61	4.77427e-007	6.14033e-005	6.18807e-005
    62	4.716e-007	6.14041e-005	6.18757e-005
    63	4.7562e-007	6.14037e-005	6.18793e-005
    64	4.80877e-007	6.14038e-005	6.18847e-005
    65	4.79752e-007	6.14036e-005	6.18834e-005
    66	4.82149e-007	6.14036e-005	6.18858e-005
    67	4.77257e-007	6.14037e-005	6.18809e-005
    68	4.74256e-007	6.14034e-005	6.18776e-005
    69	4.77895e-007	6.14043e-005	6.18822e-005
    70	4.74328e-007	6.1404e-005	6.18784e-005
    71	4.74227e-007	6.14037e-005	6.18779e-005
    72	4.76056e-007	6.14043e-005	6.18803e-005
    73	4.74857e-007	6.14051e-005	6.18799e-005
    74	4.75836e-007	6.14054e-005	6.18812e-005
    75	4.75247e-007	6.14047e-005	6.188e-005
    76	4.79285e-007	6.14053e-005	6.18846e-005
    77	4.75492e-007	6.14048e-005	6.18803e-005
    78	4.72792e-007	6.14053e-005	6.18781e-005
    79	4.77563e-007	6.14058e-005	6.18833e-005
    80	4.76316e-007	6.14061e-005	6.18824e-005
    81	4.80915e-007	6.14061e-005	6.1887e-005
    82	4.77408e-007	6.14063e-005	6.18837e-005
    83	4.88649e-007	6.14053e-005	6.18939e-005
    84	4.87585e-007	6.14063e-005	6.18939e-005
    85	4.83454e-007	6.14066e-005	6.18901e-005
    86	4.81431e-007	6.14065e-005	6.18879e-005
    87	4.86341e-007	6.14065e-005	6.18928e-005
    88	4.92695e-007	6.14059e-005	6.18986e-005
    89	4.93815e-007	6.14057e-005	6.18995e-005
    90	4.89452e-007	6.14058e-005	6.18952e-005
    91	4.89167e-007	6.14059e-005	6.1895e-005
    92	4.95146e-007	6.14062e-005	6.19014e-005
    93	4.89512e-007	6.14061e-005	6.18956e-005
    94	4.91194e-007	6.14069e-005	6.18981e-005
    95	4.96585e-007	6.14069e-005	6.19034e-005
    96	4.97118e-007	6.14064e-005	6.19035e-005
    97	4.97618e-007	6.14065e-005	6.19041e-005
    98	4.79357e-007	6.14084e-005	6.18877e-005
    99	4.87072e-007	6.14075e-005	6.18946e-005
   100	4.98997e-007	6.14073e-005	6.19063e-005
   101	4.85434e-007	6.14085e-005	6.18939e-005

Measurement: vth
  step	v(n004)	at
     1	2.66435	2.01953e-005
     2	2.66434	2.01954e-005
     3	2.66434	2.01955e-005
     4	2.66436	2.01956e-005
     5	2.66437	2.01957e-005
     6	2.66439	2.01958e-005
     7	2.66436	2.01959e-005
     8	2.66449	2.0196e-005
     9	2.66451	2.01961e-005
    10	2.6642	2.01963e-005
    11	2.66416	2.01964e-005
    12	2.66413	2.01965e-005
    13	2.66411	2.01967e-005
    14	2.66409	2.01968e-005
    15	2.66408	2.01969e-005
    16	2.66407	2.01971e-005
    17	2.66407	2.01972e-005
    18	2.66407	2.01973e-005
    19	2.66424	2.01974e-005
    20	2.66421	2.01975e-005
    21	2.66418	2.01977e-005
    22	2.66416	2.01978e-005
    23	2.66411	2.0198e-005
    24	2.66409	2.01981e-005
    25	2.66407	2.01983e-005
    26	2.66405	2.01984e-005
    27	2.66404	2.01985e-005
    28	2.66402	2.01987e-005
    29	2.66401	2.01988e-005
    30	2.664	2.0199e-005
    31	2.66399	2.01991e-005
    32	2.66398	2.01992e-005
    33	2.66397	2.01994e-005
    34	2.66397	2.01995e-005
    35	2.66396	2.01996e-005
    36	2.66396	2.01998e-005
    37	2.66396	2.01999e-005
    38	2.66418	2.01999e-005
    39	2.66416	2.02001e-005
    40	2.66414	2.02002e-005
    41	2.66413	2.02004e-005
    42	2.66411	2.02005e-005
    43	2.6641	2.02006e-005
    44	2.66408	2.02008e-005
    45	2.6643	2.02006e-005
    46	2.6643	2.02007e-005
    47	2.66431	2.02008e-005
    48	2.66431	2.02009e-005
    49	2.66432	2.0201e-005
    50	2.66432	2.02011e-005
    51	2.66433	2.02013e-005
    52	2.66433	2.02014e-005
    53	2.66434	2.02015e-005
    54	2.66434	2.02016e-005
    55	2.66435	2.02017e-005
    56	2.66436	2.02018e-005
    57	2.66436	2.02019e-005
    58	2.66379	2.02026e-005
    59	2.66377	2.02027e-005
    60	2.66376	2.02028e-005
    61	2.66374	2.02029e-005
    62	2.66372	2.02031e-005
    63	2.66371	2.02032e-005
    64	2.66369	2.02033e-005
    65	2.66367	2.02032e-005
    66	2.66356	2.02033e-005
    67	2.66384	2.02032e-005
    68	2.66311	2.02043e-005
    69	2.66406	2.02032e-005
    70	2.66302	2.02045e-005
    71	2.66336	2.02043e-005
    72	2.6635	2.02044e-005
    73	2.66418	2.02035e-005
    74	2.66355	2.02042e-005
    75	2.66307	2.0205e-005
    76	2.66309	2.02051e-005
    77	2.66293	2.02055e-005
    78	2.66309	2.02054e-005
    79	2.66318	2.02054e-005
    80	2.6633	2.02055e-005
    81	2.66335	2.02055e-005
    82	2.66341	2.02055e-005
    83	2.66395	2.02049e-005
    84	2.6633	2.02059e-005
    85	2.66329	2.0206e-005
    86	2.66322	2.02062e-005
    87	2.66313	2.02063e-005
    88	2.66289	2.02066e-005
    89	2.66314	2.02064e-005
    90	2.66308	2.02067e-005
    91	2.66288	2.02068e-005
    92	2.66333	2.02066e-005
    93	2.66271	2.02074e-005
    94	2.66312	2.02071e-005
    95	2.66279	2.02075e-005
    96	2.66292	2.02075e-005
    97	2.66286	2.02077e-005
    98	2.6628	2.02078e-005
    99	2.66275	2.0208e-005
   100	2.66271	2.02081e-005
   101	2.66269	2.02083e-005


Date: Tue Mar 22 14:30:12 2022
Total elapsed time: 1.428 seconds.

tnom = 27
temp = 27
method = modified trap
totiter = 2577
traniter = 2548
tranpoints = 1151
accept = 1113
rejected = 38
matrix size = 11
fillins = 0
solver = Normal
Matrix Compiler1: 674 bytes object code size  0.1/0.1/[0.0]
Matrix Compiler2: 847 bytes object code size  0.1/0.1/[0.1]

