Circuit: * C:\Users\user\Documents\LTspiceXVII\file\Montecarlo\monte_SiC.asc

Direct Newton iteration for .op point succeeded.
.step tol1=0
.step tol1=0.01
.step tol1=0.02
.step tol1=0.03
.step tol1=0.04
.step tol1=0.05
.step tol1=0.06
.step tol1=0.07
.step tol1=0.08
.step tol1=0.09
.step tol1=0.1
.step tol1=0.11
.step tol1=0.12
.step tol1=0.13
.step tol1=0.14
.step tol1=0.15
.step tol1=0.16
.step tol1=0.17
.step tol1=0.18
.step tol1=0.19
.step tol1=0.2
.step tol1=0.21
.step tol1=0.22
.step tol1=0.23
.step tol1=0.24
.step tol1=0.25
.step tol1=0.26
.step tol1=0.27
.step tol1=0.28
.step tol1=0.29
.step tol1=0.3
.step tol1=0.31
.step tol1=0.32
.step tol1=0.33
.step tol1=0.34
.step tol1=0.35
.step tol1=0.36
.step tol1=0.37
.step tol1=0.38
.step tol1=0.39
.step tol1=0.4
.step tol1=0.41
.step tol1=0.42
.step tol1=0.43
.step tol1=0.44
.step tol1=0.45
.step tol1=0.46
.step tol1=0.47
.step tol1=0.48
.step tol1=0.49
.step tol1=0.5
.step tol1=0.51
.step tol1=0.52
.step tol1=0.53
.step tol1=0.54
.step tol1=0.55
.step tol1=0.56
.step tol1=0.57
.step tol1=0.58
.step tol1=0.59
.step tol1=0.6
.step tol1=0.61
.step tol1=0.62
.step tol1=0.63
.step tol1=0.64
.step tol1=0.65
.step tol1=0.66
.step tol1=0.67
.step tol1=0.68
.step tol1=0.69
.step tol1=0.7
.step tol1=0.71
.step tol1=0.72
.step tol1=0.73
.step tol1=0.74
.step tol1=0.75
.step tol1=0.76
.step tol1=0.77
.step tol1=0.78
.step tol1=0.79
.step tol1=0.8
.step tol1=0.81
.step tol1=0.82
.step tol1=0.83
.step tol1=0.84
.step tol1=0.85
.step tol1=0.86
.step tol1=0.87
.step tol1=0.88
.step tol1=0.89
.step tol1=0.9
.step tol1=0.91
.step tol1=0.92
.step tol1=0.93
.step tol1=0.94
.step tol1=0.95
.step tol1=0.96
.step tol1=0.97
.step tol1=0.98
.step tol1=0.99
.step tol1=1


Measurement: imax
  step	MAX(-i(v1))	FROM	TO
     1	0.998033	0	0.0001
     2	0.998033	0	0.0001
     3	0.998033	0	0.0001
     4	0.998033	0	0.0001
     5	0.998033	0	0.0001
     6	0.998033	0	0.0001
     7	0.998033	0	0.0001
     8	0.998034	0	0.0001
     9	0.998034	0	0.0001
    10	0.998034	0	0.0001
    11	0.998034	0	0.0001
    12	0.998034	0	0.0001
    13	0.998034	0	0.0001
    14	0.998035	0	0.0001
    15	0.998035	0	0.0001
    16	0.998035	0	0.0001
    17	0.998036	0	0.0001
    18	0.998036	0	0.0001
    19	0.998035	0	0.0001
    20	0.998033	0	0.0001
    21	0.998033	0	0.0001
    22	0.998036	0	0.0001
    23	0.998034	0	0.0001
    24	0.998036	0	0.0001
    25	0.998036	0	0.0001
    26	0.998036	0	0.0001
    27	0.998036	0	0.0001
    28	0.998035	0	0.0001
    29	0.998034	0	0.0001
    30	0.998034	0	0.0001
    31	0.998034	0	0.0001
    32	0.998034	0	0.0001
    33	0.998035	0	0.0001
    34	0.998035	0	0.0001
    35	0.998034	0	0.0001
    36	0.998034	0	0.0001
    37	0.998034	0	0.0001
    38	0.998034	0	0.0001
    39	0.998034	0	0.0001
    40	0.998034	0	0.0001
    41	0.998034	0	0.0001
    42	0.998035	0	0.0001
    43	0.998035	0	0.0001
    44	0.998035	0	0.0001
    45	0.998035	0	0.0001
    46	0.998035	0	0.0001
    47	0.998035	0	0.0001
    48	0.998035	0	0.0001
    49	0.998035	0	0.0001
    50	0.998035	0	0.0001
    51	0.998035	0	0.0001
    52	0.998035	0	0.0001
    53	0.998035	0	0.0001
    54	0.998035	0	0.0001
    55	0.998035	0	0.0001
    56	0.998034	0	0.0001
    57	0.998034	0	0.0001
    58	0.998034	0	0.0001
    59	0.998034	0	0.0001
    60	0.998035	0	0.0001
    61	0.998035	0	0.0001
    62	0.998035	0	0.0001
    63	0.998035	0	0.0001
    64	0.998035	0	0.0001
    65	0.998036	0	0.0001
    66	0.998036	0	0.0001
    67	0.998036	0	0.0001
    68	0.998034	0	0.0001
    69	0.998036	0	0.0001
    70	0.998033	0	0.0001
    71	0.998033	0	0.0001
    72	0.998033	0	0.0001
    73	0.998033	0	0.0001
    74	0.998033	0	0.0001
    75	0.998033	0	0.0001
    76	0.998033	0	0.0001
    77	0.998033	0	0.0001
    78	0.998034	0	0.0001
    79	0.998034	0	0.0001
    80	0.998034	0	0.0001
    81	0.998036	0	0.0001
    82	0.998036	0	0.0001
    83	0.998035	0	0.0001
    84	0.998034	0	0.0001
    85	0.998034	0	0.0001
    86	0.998034	0	0.0001
    87	0.998034	0	0.0001
    88	0.998034	0	0.0001
    89	0.998033	0	0.0001
    90	0.998033	0	0.0001
    91	0.998035	0	0.0001
    92	0.998034	0	0.0001
    93	0.998034	0	0.0001
    94	0.998035	0	0.0001
    95	0.998034	0	0.0001
    96	0.998034	0	0.0001
    97	0.998033	0	0.0001
    98	0.998033	0	0.0001
    99	0.998033	0	0.0001
   100	0.998033	0	0.0001
   101	0.998033	0	0.0001

Measurement: tr1
  step	tr1	FROM	TO
     1	1.46403e-007	2.01363e-005	2.02827e-005
     2	1.46387e-007	2.01363e-005	2.02827e-005
     3	1.4637e-007	2.01363e-005	2.02826e-005
     4	1.46353e-007	2.01363e-005	2.02826e-005
     5	1.46336e-007	2.01363e-005	2.02826e-005
     6	1.46319e-007	2.01363e-005	2.02826e-005
     7	1.46302e-007	2.01363e-005	2.02826e-005
     8	1.46285e-007	2.01362e-005	2.02825e-005
     9	1.46267e-007	2.01362e-005	2.02825e-005
    10	1.46261e-007	2.01362e-005	2.02825e-005
    11	1.46256e-007	2.01362e-005	2.02825e-005
    12	1.46252e-007	2.01362e-005	2.02824e-005
    13	1.46247e-007	2.01362e-005	2.02824e-005
    14	1.46242e-007	2.01362e-005	2.02824e-005
    15	1.46237e-007	2.01361e-005	2.02824e-005
    16	1.46232e-007	2.01361e-005	2.02823e-005
    17	1.46226e-007	2.01361e-005	2.02823e-005
    18	1.46221e-007	2.01361e-005	2.02823e-005
    19	1.46215e-007	2.01361e-005	2.02823e-005
    20	1.46209e-007	2.0136e-005	2.02822e-005
    21	1.46203e-007	2.0136e-005	2.02822e-005
    22	1.46198e-007	2.0136e-005	2.02822e-005
    23	1.46191e-007	2.0136e-005	2.02822e-005
    24	1.46186e-007	2.0136e-005	2.02821e-005
    25	1.4618e-007	2.01359e-005	2.02821e-005
    26	1.46174e-007	2.01359e-005	2.02821e-005
    27	1.46167e-007	2.01359e-005	2.02821e-005
    28	1.46161e-007	2.01359e-005	2.0282e-005
    29	1.46159e-007	2.01359e-005	2.0282e-005
    30	1.46171e-007	2.01358e-005	2.0282e-005
    31	1.46183e-007	2.01358e-005	2.0282e-005
    32	1.46195e-007	2.01358e-005	2.0282e-005
    33	1.46207e-007	2.01358e-005	2.0282e-005
    34	1.46218e-007	2.01358e-005	2.0282e-005
    35	1.46634e-007	2.01352e-005	2.02818e-005
    36	1.46629e-007	2.01352e-005	2.02818e-005
    37	1.46624e-007	2.01352e-005	2.02818e-005
    38	1.46619e-007	2.01352e-005	2.02818e-005
    39	1.46614e-007	2.01352e-005	2.02818e-005
    40	1.46609e-007	2.01352e-005	2.02818e-005
    41	1.46603e-007	2.01352e-005	2.02818e-005
    42	1.46599e-007	2.01352e-005	2.02818e-005
    43	1.46593e-007	2.01352e-005	2.02818e-005
    44	1.46587e-007	2.01352e-005	2.02818e-005
    45	1.46581e-007	2.01352e-005	2.02818e-005
    46	1.46575e-007	2.01352e-005	2.02818e-005
    47	1.46569e-007	2.01352e-005	2.02818e-005
    48	1.46562e-007	2.01352e-005	2.02818e-005
    49	1.46556e-007	2.01352e-005	2.02818e-005
    50	1.46549e-007	2.01352e-005	2.02818e-005
    51	1.46542e-007	2.01352e-005	2.02818e-005
    52	1.46534e-007	2.01352e-005	2.02817e-005
    53	1.46527e-007	2.01352e-005	2.02817e-005
    54	1.46607e-007	2.01352e-005	2.02818e-005
    55	1.46601e-007	2.01352e-005	2.02818e-005
    56	1.46596e-007	2.01352e-005	2.02818e-005
    57	1.46591e-007	2.01352e-005	2.02818e-005
    58	1.46585e-007	2.01352e-005	2.02818e-005
    59	1.46579e-007	2.01352e-005	2.02818e-005
    60	1.4652e-007	2.01352e-005	2.02817e-005
    61	1.46521e-007	2.01352e-005	2.02817e-005
    62	1.46521e-007	2.01352e-005	2.02817e-005
    63	1.46521e-007	2.01352e-005	2.02817e-005
    64	1.46521e-007	2.01352e-005	2.02817e-005
    65	1.46521e-007	2.01352e-005	2.02817e-005
    66	1.46521e-007	2.01352e-005	2.02817e-005
    67	1.4652e-007	2.01352e-005	2.02817e-005
    68	1.46519e-007	2.01352e-005	2.02817e-005
    69	1.46518e-007	2.01352e-005	2.02817e-005
    70	1.46516e-007	2.01352e-005	2.02817e-005
    71	1.46514e-007	2.01352e-005	2.02817e-005
    72	1.46512e-007	2.01352e-005	2.02817e-005
    73	1.46509e-007	2.01352e-005	2.02817e-005
    74	1.46506e-007	2.01352e-005	2.02817e-005
    75	1.46503e-007	2.01352e-005	2.02817e-005
    76	1.46504e-007	2.01352e-005	2.02817e-005
    77	1.46505e-007	2.01352e-005	2.02817e-005
    78	1.46505e-007	2.01352e-005	2.02817e-005
    79	1.46505e-007	2.01352e-005	2.02817e-005
    80	1.46504e-007	2.01352e-005	2.02817e-005
    81	1.4653e-007	2.01352e-005	2.02817e-005
    82	1.46568e-007	2.01352e-005	2.02817e-005
    83	1.51911e-007	2.01352e-005	2.02871e-005
    84	1.51937e-007	2.01351e-005	2.02871e-005
    85	1.51964e-007	2.01351e-005	2.02871e-005
    86	1.51991e-007	2.01351e-005	2.02871e-005
    87	1.52019e-007	2.01351e-005	2.02872e-005
    88	1.52047e-007	2.01351e-005	2.02872e-005
    89	1.52076e-007	2.01351e-005	2.02872e-005
    90	1.52104e-007	2.01351e-005	2.02872e-005
    91	1.52133e-007	2.01351e-005	2.02873e-005
    92	1.52162e-007	2.01351e-005	2.02873e-005
    93	1.5219e-007	2.01351e-005	2.02873e-005
    94	1.47553e-007	2.01351e-005	2.02827e-005
    95	1.47648e-007	2.01351e-005	2.02828e-005
    96	1.47746e-007	2.01351e-005	2.02828e-005
    97	1.47845e-007	2.01351e-005	2.02829e-005
    98	1.47945e-007	2.01351e-005	2.0283e-005
    99	1.48047e-007	2.01351e-005	2.02831e-005
   100	1.46608e-007	2.01351e-005	2.02817e-005
   101	1.46617e-007	2.01351e-005	2.02817e-005

Measurement: tr2
  step	tr2	FROM	TO
     1	4.44971e-007	6.13959e-005	6.18409e-005
     2	4.44979e-007	6.13959e-005	6.18408e-005
     3	4.45003e-007	6.13959e-005	6.18409e-005
     4	4.45004e-007	6.13958e-005	6.18408e-005
     5	4.45028e-007	6.13958e-005	6.18408e-005
     6	4.45052e-007	6.13958e-005	6.18408e-005
     7	4.45076e-007	6.13958e-005	6.18409e-005
     8	4.3187e-007	6.13958e-005	6.18277e-005
     9	4.33366e-007	6.13964e-005	6.18298e-005
    10	4.32376e-007	6.13961e-005	6.18284e-005
    11	4.36331e-007	6.1396e-005	6.18324e-005
    12	4.37466e-007	6.13962e-005	6.18337e-005
    13	4.4449e-007	6.13962e-005	6.18407e-005
    14	4.34947e-007	6.13957e-005	6.18307e-005
    15	4.44497e-007	6.1396e-005	6.18405e-005
    16	4.41199e-007	6.13968e-005	6.1838e-005
    17	4.45342e-007	6.13958e-005	6.18412e-005
    18	4.45368e-007	6.13958e-005	6.18412e-005
    19	4.40858e-007	6.13961e-005	6.1837e-005
    20	4.4544e-007	6.13959e-005	6.18413e-005
    21	4.45466e-007	6.13959e-005	6.18414e-005
    22	4.45211e-007	6.13962e-005	6.18415e-005
    23	4.40622e-007	6.13969e-005	6.18375e-005
    24	4.31959e-007	6.13958e-005	6.18278e-005
    25	4.4555e-007	6.13958e-005	6.18414e-005
    26	4.45576e-007	6.13958e-005	6.18414e-005
    27	4.45603e-007	6.13958e-005	6.18414e-005
    28	4.45629e-007	6.13958e-005	6.18415e-005
    29	4.36332e-007	6.13958e-005	6.18321e-005
    30	4.40777e-007	6.13969e-005	6.18376e-005
    31	4.45709e-007	6.13958e-005	6.18415e-005
    32	4.40964e-007	6.13966e-005	6.18376e-005
    33	4.37532e-007	6.1396e-005	6.18335e-005
    34	4.3745e-007	6.13964e-005	6.18339e-005
    35	4.4584e-007	6.13958e-005	6.18417e-005
    36	4.45846e-007	6.13958e-005	6.18417e-005
    37	4.45874e-007	6.13958e-005	6.18417e-005
    38	4.45902e-007	6.13958e-005	6.18417e-005
    39	4.4593e-007	6.13958e-005	6.18418e-005
    40	4.45958e-007	6.13958e-005	6.18418e-005
    41	4.4597e-007	6.13958e-005	6.18418e-005
    42	4.46014e-007	6.13958e-005	6.18419e-005
    43	4.46043e-007	6.13958e-005	6.18419e-005
    44	4.46071e-007	6.13958e-005	6.18419e-005
    45	4.461e-007	6.13958e-005	6.18419e-005
    46	4.46129e-007	6.13958e-005	6.1842e-005
    47	4.46158e-007	6.13958e-005	6.1842e-005
    48	4.3665e-007	6.13958e-005	6.18325e-005
    49	4.41716e-007	6.13965e-005	6.18382e-005
    50	4.41163e-007	6.13966e-005	6.18378e-005
    51	4.41127e-007	6.13966e-005	6.18377e-005
    52	4.41196e-007	6.13966e-005	6.18378e-005
    53	4.41794e-007	6.13965e-005	6.18382e-005
    54	4.38127e-007	6.13961e-005	6.18342e-005
    55	4.37737e-007	6.1396e-005	6.18338e-005
    56	4.42122e-007	6.13958e-005	6.1838e-005
    57	4.41258e-007	6.13969e-005	6.18382e-005
    58	4.46469e-007	6.13958e-005	6.18423e-005
    59	4.46499e-007	6.13958e-005	6.18423e-005
    60	4.46546e-007	6.13958e-005	6.18424e-005
    61	4.46577e-007	6.13958e-005	6.18424e-005
    62	4.46608e-007	6.13958e-005	6.18424e-005
    63	4.4664e-007	6.13958e-005	6.18425e-005
    64	4.46671e-007	6.13958e-005	6.18425e-005
    65	4.46703e-007	6.13958e-005	6.18425e-005
    66	4.46735e-007	6.13958e-005	6.18426e-005
    67	4.46767e-007	6.13958e-005	6.18426e-005
    68	4.38346e-007	6.1396e-005	6.18344e-005
    69	4.3952e-007	6.13962e-005	6.18357e-005
    70	4.46882e-007	6.13959e-005	6.18428e-005
    71	4.46915e-007	6.13959e-005	6.18428e-005
    72	4.46947e-007	6.13959e-005	6.18428e-005
    73	4.4698e-007	6.13959e-005	6.18429e-005
    74	4.47012e-007	6.13959e-005	6.18429e-005
    75	4.47045e-007	6.13959e-005	6.18429e-005
    76	4.47078e-007	6.13959e-005	6.1843e-005
    77	4.36507e-007	6.13959e-005	6.18324e-005
    78	4.41667e-007	6.1397e-005	6.18387e-005
    79	4.33193e-007	6.13962e-005	6.18294e-005
    80	4.36453e-007	6.13966e-005	6.18331e-005
    81	4.46921e-007	6.13963e-005	6.18432e-005
    82	4.4726e-007	6.13958e-005	6.18431e-005
    83	4.38554e-007	6.1396e-005	6.18345e-005
    84	4.41855e-007	6.13968e-005	6.18386e-005
    85	4.42386e-007	6.13967e-005	6.18391e-005
    86	4.47381e-007	6.13958e-005	6.18432e-005
    87	4.47415e-007	6.13958e-005	6.18432e-005
    88	4.4745e-007	6.13958e-005	6.18432e-005
    89	4.47484e-007	6.13958e-005	6.18433e-005
    90	4.47519e-007	6.13958e-005	6.18433e-005
    91	4.42558e-007	6.13968e-005	6.18393e-005
    92	4.42568e-007	6.13967e-005	6.18393e-005
    93	4.35145e-007	6.13957e-005	6.18309e-005
    94	4.4207e-007	6.13964e-005	6.18384e-005
    95	4.35201e-007	6.1396e-005	6.18312e-005
    96	4.41395e-007	6.13961e-005	6.18375e-005
    97	4.47787e-007	6.13959e-005	6.18436e-005
    98	4.47823e-007	6.13959e-005	6.18437e-005
    99	4.47859e-007	6.13959e-005	6.18437e-005
   100	4.34708e-007	6.13958e-005	6.18305e-005
   101	4.47945e-007	6.13959e-005	6.18438e-005

Measurement: vth
  step	v(n004)	at
     1	2.66435	2.01953e-005
     2	2.66436	2.01953e-005
     3	2.66437	2.01953e-005
     4	2.66438	2.01953e-005
     5	2.66439	2.01953e-005
     6	2.6644	2.01953e-005
     7	2.66441	2.01953e-005
     8	2.66442	2.01953e-005
     9	2.66443	2.01953e-005
    10	2.66443	2.01953e-005
    11	2.66444	2.01953e-005
    12	2.66445	2.01953e-005
    13	2.66446	2.01952e-005
    14	2.66447	2.01952e-005
    15	2.66448	2.01952e-005
    16	2.66449	2.01952e-005
    17	2.66451	2.01952e-005
    18	2.66452	2.01952e-005
    19	2.66453	2.01952e-005
    20	2.66454	2.01952e-005
    21	2.66455	2.01952e-005
    22	2.66456	2.01952e-005
    23	2.66457	2.01952e-005
    24	2.66458	2.01952e-005
    25	2.66459	2.01952e-005
    26	2.66461	2.01952e-005
    27	2.66462	2.01952e-005
    28	2.66463	2.01951e-005
    29	2.66464	2.01951e-005
    30	2.66465	2.01951e-005
    31	2.66467	2.01951e-005
    32	2.66468	2.01951e-005
    33	2.66469	2.01951e-005
    34	2.6647	2.01951e-005
    35	2.66494	2.01949e-005
    36	2.66494	2.01949e-005
    37	2.66495	2.01949e-005
    38	2.66495	2.01949e-005
    39	2.66496	2.01949e-005
    40	2.66496	2.01949e-005
    41	2.66497	2.01949e-005
    42	2.66497	2.01949e-005
    43	2.66498	2.01949e-005
    44	2.66498	2.01949e-005
    45	2.66499	2.01949e-005
    46	2.66499	2.01948e-005
    47	2.665	2.01948e-005
    48	2.66501	2.01948e-005
    49	2.66501	2.01948e-005
    50	2.66502	2.01948e-005
    51	2.66503	2.01948e-005
    52	2.66503	2.01948e-005
    53	2.66504	2.01948e-005
    54	2.66505	2.01948e-005
    55	2.66506	2.01948e-005
    56	2.66507	2.01948e-005
    57	2.66507	2.01948e-005
    58	2.66508	2.01947e-005
    59	2.66509	2.01947e-005
    60	2.66504	2.01947e-005
    61	2.66504	2.01947e-005
    62	2.66505	2.01947e-005
    63	2.66506	2.01947e-005
    64	2.66506	2.01947e-005
    65	2.66507	2.01947e-005
    66	2.66508	2.01947e-005
    67	2.66509	2.01947e-005
    68	2.66509	2.01947e-005
    69	2.6651	2.01947e-005
    70	2.66511	2.01947e-005
    71	2.66512	2.01947e-005
    72	2.66513	2.01946e-005
    73	2.66514	2.01946e-005
    74	2.66514	2.01946e-005
    75	2.66515	2.01946e-005
    76	2.66516	2.01946e-005
    77	2.66517	2.01946e-005
    78	2.66518	2.01946e-005
    79	2.66519	2.01946e-005
    80	2.6652	2.01946e-005
    81	2.66521	2.01945e-005
    82	2.66522	2.01945e-005
    83	2.66523	2.01945e-005
    84	2.66524	2.01945e-005
    85	2.66525	2.01945e-005
    86	2.66526	2.01945e-005
    87	2.66527	2.01945e-005
    88	2.66529	2.01945e-005
    89	2.6653	2.01944e-005
    90	2.66531	2.01944e-005
    91	2.66532	2.01944e-005
    92	2.66533	2.01944e-005
    93	2.66534	2.01944e-005
    94	2.66536	2.01944e-005
    95	2.66537	2.01944e-005
    96	2.66538	2.01943e-005
    97	2.66539	2.01943e-005
    98	2.6654	2.01943e-005
    99	2.66542	2.01943e-005
   100	2.66543	2.01943e-005
   101	2.66545	2.01942e-005


Date: Tue Mar 22 14:30:53 2022
Total elapsed time: 1.308 seconds.

tnom = 27
temp = 27
method = modified trap
totiter = 2539
traniter = 2510
tranpoints = 1140
accept = 1110
rejected = 30
matrix size = 11
fillins = 0
solver = Normal
Matrix Compiler1: 674 bytes object code size  0.1/0.1/[0.1]
Matrix Compiler2:      68 opcodes  0.1/[0.1]/0.1

