Circuit: * C:\Users\user\Documents\LTspiceXVII\file\Montecarlo\LTC1871-7_F09.asc

Per .tran options, skipping operating point for transient analysis.
.step tol1=0
.step tol1=0.01
.step tol1=0.02
.step tol1=0.03
.step tol1=0.04
.step tol1=0.05
.step tol1=0.06
.step tol1=0.07
.step tol1=0.08
.step tol1=0.09
.step tol1=0.1
.step tol1=0.11
.step tol1=0.12
.step tol1=0.13
.step tol1=0.14
.step tol1=0.15
.step tol1=0.16
.step tol1=0.17
.step tol1=0.18
.step tol1=0.19
.step tol1=0.2
.step tol1=0.21
.step tol1=0.22
.step tol1=0.23
.step tol1=0.24
.step tol1=0.25
.step tol1=0.26
.step tol1=0.27
.step tol1=0.28
.step tol1=0.29
.step tol1=0.3
.step tol1=0.31
.step tol1=0.32
.step tol1=0.33
.step tol1=0.34
.step tol1=0.35
.step tol1=0.36


Measurement: freq
  step	1/t_period
     1	203707
     2	203614
     3	203875
     4	203798
     5	203865
     6	203777
     7	203478
     8	203707
     9	203644
    10	203894
    11	203642
    12	203777
    13	203734
    14	203709
    15	203884
    16	203842
    17	203312
    18	203842
    19	204020
    20	203504
    21	203832
    22	203572
    23	203662
    24	204121
    25	203976
    26	203362
    27	203875
    28	203053
    29	202601
    30	204271
    31	203445
    32	203524
    33	203819
    34	203720
    35	204003
    36	203876
    37	203750

Measurement: pin
  step	AVG(-v(in)*i(v1))	FROM	TO
     1	69.4536	0.002	0.0025
     2	69.5124	0.002	0.0025
     3	69.5724	0.002	0.0025
     4	69.6362	0.002	0.0025
     5	69.7087	0.002	0.0025
     6	69.7762	0.002	0.0025
     7	69.853	0.002	0.0025
     8	69.9334	0.002	0.0025
     9	70.0318	0.002	0.0025
    10	70.1205	0.002	0.0025
    11	70.2139	0.002	0.0025
    12	70.3338	0.002	0.0025
    13	70.4523	0.002	0.0025
    14	70.5814	0.002	0.0025
    15	70.7113	0.002	0.0025
    16	70.8732	0.002	0.0025
    17	71.0432	0.002	0.0025
    18	71.242	0.002	0.0025
    19	71.4688	0.002	0.0025
    20	71.7122	0.002	0.0025
    21	71.9719	0.002	0.0025
    22	72.209	0.002	0.0025
    23	72.4637	0.002	0.0025
    24	72.8685	0.002	0.0025
    25	73.5191	0.002	0.0025
    26	73.8583	0.002	0.0025
    27	74.3726	0.002	0.0025
    28	74.8463	0.002	0.0025
    29	75.8089	0.002	0.0025
    30	80.8114	0.002	0.0025
    31	128.924	0.002	0.0025
    32	126.28	0.002	0.0025
    33	123.052	0.002	0.0025
    34	119.163	0.002	0.0025
    35	114.551	0.002	0.0025
    36	107.71	0.002	0.0025
    37	100.083	0.002	0.0025

Measurement: pout
  step	AVG(v(out)*i(rload))	FROM	TO
     1	63.2557	0.002	0.0025
     2	63.2557	0.002	0.0025
     3	63.2553	0.002	0.0025
     4	63.2552	0.002	0.0025
     5	63.2552	0.002	0.0025
     6	63.2549	0.002	0.0025
     7	63.255	0.002	0.0025
     8	63.2549	0.002	0.0025
     9	63.2548	0.002	0.0025
    10	63.2547	0.002	0.0025
    11	63.2545	0.002	0.0025
    12	63.2544	0.002	0.0025
    13	63.2544	0.002	0.0025
    14	63.2543	0.002	0.0025
    15	63.2546	0.002	0.0025
    16	63.2547	0.002	0.0025
    17	63.2545	0.002	0.0025
    18	63.2543	0.002	0.0025
    19	63.2536	0.002	0.0025
    20	63.2527	0.002	0.0025
    21	63.2513	0.002	0.0025
    22	63.2512	0.002	0.0025
    23	63.2533	0.002	0.0025
    24	63.2564	0.002	0.0025
    25	63.2508	0.002	0.0025
    26	63.2443	0.002	0.0025
    27	63.2647	0.002	0.0025
    28	63.2415	0.002	0.0025
    29	63.2243	0.002	0.0025
    30	63.2343	0.002	0.0025
    31	62.2321	0.002	0.0025
    32	53.4785	0.002	0.0025
    33	44.4425	0.002	0.0025
    34	35.6579	0.002	0.0025
    35	27.49	0.002	0.0025
    36	23.7554	0.002	0.0025
    37	21.9681	0.002	0.0025

Measurement: eff
  step	pout/pin
     1	0.910762
     2	0.909991
     3	0.909201
     4	0.908367
     5	0.907421
     6	0.906541
     7	0.905544
     8	0.904502
     9	0.903229
    10	0.902086
    11	0.900884
    12	0.899345
    13	0.897832
    14	0.896188
    15	0.894547
    16	0.892505
    17	0.890367
    18	0.887879
    19	0.885052
    20	0.882035
    21	0.878833
    22	0.875947
    23	0.872897
    24	0.86809
    25	0.860332
    26	0.856293
    27	0.850645
    28	0.844951
    29	0.833995
    30	0.782492
    31	0.482705
    32	0.423492
    33	0.361168
    34	0.299237
    35	0.239979
    36	0.220549
    37	0.219498

Measurement: t_period
  step	t2-t1
     1	4.90902e-006
     2	4.91126e-006
     3	4.90496e-006
     4	4.90681e-006
     5	4.9052e-006
     6	4.90732e-006
     7	4.91452e-006
     8	4.909e-006
     9	4.91053e-006
    10	4.90451e-006
    11	4.91059e-006
    12	4.90732e-006
    13	4.90836e-006
    14	4.90896e-006
    15	4.90475e-006
    16	4.90576e-006
    17	4.91854e-006
    18	4.90575e-006
    19	4.90147e-006
    20	4.91391e-006
    21	4.906e-006
    22	4.91226e-006
    23	4.91009e-006
    24	4.89906e-006
    25	4.90253e-006
    26	4.91734e-006
    27	4.90496e-006
    28	4.92482e-006
    29	4.93581e-006
    30	4.89545e-006
    31	4.91533e-006
    32	4.91343e-006
    33	4.90632e-006
    34	4.9087e-006
    35	4.90189e-006
    36	4.90494e-006
    37	4.90797e-006

Measurement: vgmax
  step	MAX(v(vgate))	FROM	TO
     1	6.9981	0	0.0025
     2	6.99816	0	0.0025
     3	6.99816	0	0.0025
     4	6.99815	0	0.0025
     5	6.99819	0	0.0025
     6	6.99819	0	0.0025
     7	6.99823	0	0.0025
     8	6.99823	0	0.0025
     9	6.99825	0	0.0025
    10	6.99826	0	0.0025
    11	6.99829	0	0.0025
    12	6.99833	0	0.0025
    13	6.99833	0	0.0025
    14	6.99835	0	0.0025
    15	6.99838	0	0.0025
    16	6.9984	0	0.0025
    17	6.99842	0	0.0025
    18	6.99846	0	0.0025
    19	6.99849	0	0.0025
    20	6.9985	0	0.0025
    21	6.99853	0	0.0025
    22	6.99856	0	0.0025
    23	6.99864	0	0.0025
    24	6.99864	0	0.0025
    25	6.99872	0	0.0025
    26	6.99876	0	0.0025
    27	6.99876	0	0.0025
    28	6.99882	0	0.0025
    29	6.99886	0	0.0025
    30	6.99893	0	0.0025
    31	6.99543	0	0.0025
    32	6.99803	0	0.0025
    33	7.00015	0	0.0025
    34	7.0019	0	0.0025
    35	7.00393	0	0.0025
    36	7.00559	0	0.0025
    37	7.00615	0	0.0025

Measurement: t1
  step	time	at
     1	0.002002	0.002002
     2	0.00200195	0.00200195
     3	0.00200181	0.00200181
     4	0.00200198	0.00200198
     5	0.00200192	0.00200192
     6	0.00200195	0.00200195
     7	0.00200191	0.00200191
     8	0.00200199	0.00200199
     9	0.002002	0.002002
    10	0.00200189	0.00200189
    11	0.00200191	0.00200191
    12	0.00200204	0.00200204
    13	0.00200204	0.00200204
    14	0.00200193	0.00200193
    15	0.002002	0.002002
    16	0.00200191	0.00200191
    17	0.00200189	0.00200189
    18	0.00200189	0.00200189
    19	0.00200214	0.00200214
    20	0.00200203	0.00200203
    21	0.00200205	0.00200205
    22	0.00200195	0.00200195
    23	0.002002	0.002002
    24	0.00200204	0.00200204
    25	0.00200219	0.00200219
    26	0.00200206	0.00200206
    27	0.00200193	0.00200193
    28	0.00200199	0.00200199
    29	0.00200198	0.00200198
    30	0.00200247	0.00200247
    31	0.00200285	0.00200285
    32	0.00200292	0.00200292
    33	0.00200291	0.00200291
    34	0.00200326	0.00200326
    35	0.00200365	0.00200365
    36	0.0020035	0.0020035
    37	0.00200354	0.00200354

Measurement: t2
  step	time	at
     1	0.00200691	0.00200691
     2	0.00200686	0.00200686
     3	0.00200671	0.00200671
     4	0.00200689	0.00200689
     5	0.00200682	0.00200682
     6	0.00200685	0.00200685
     7	0.00200683	0.00200683
     8	0.0020069	0.0020069
     9	0.00200692	0.00200692
    10	0.0020068	0.0020068
    11	0.00200682	0.00200682
    12	0.00200695	0.00200695
    13	0.00200695	0.00200695
    14	0.00200684	0.00200684
    15	0.00200691	0.00200691
    16	0.00200681	0.00200681
    17	0.00200681	0.00200681
    18	0.00200679	0.00200679
    19	0.00200704	0.00200704
    20	0.00200695	0.00200695
    21	0.00200696	0.00200696
    22	0.00200686	0.00200686
    23	0.00200691	0.00200691
    24	0.00200694	0.00200694
    25	0.00200709	0.00200709
    26	0.00200698	0.00200698
    27	0.00200684	0.00200684
    28	0.00200691	0.00200691
    29	0.00200692	0.00200692
    30	0.00200736	0.00200736
    31	0.00200776	0.00200776
    32	0.00200783	0.00200783
    33	0.00200781	0.00200781
    34	0.00200817	0.00200817
    35	0.00200855	0.00200855
    36	0.00200841	0.00200841
    37	0.00200845	0.00200845

Measurement: p_sw
  step	AVG(v(n001,n004)*ix(u2:d))	FROM	TO
     1	4.45675	0.002	0.0025
     2	4.56168	0.002	0.0025
     3	4.61991	0.002	0.0025
     4	4.66924	0.002	0.0025
     5	4.73861	0.002	0.0025
     6	4.80648	0.002	0.0025
     7	4.8812	0.002	0.0025
     8	4.94942	0.002	0.0025
     9	5.07549	0.002	0.0025
    10	5.19145	0.002	0.0025
    11	5.29944	0.002	0.0025
    12	5.41333	0.002	0.0025
    13	5.56805	0.002	0.0025
    14	5.72128	0.002	0.0025
    15	5.86065	0.002	0.0025
    16	6.02378	0.002	0.0025
    17	6.1938	0.002	0.0025
    18	6.38689	0.002	0.0025
    19	6.59091	0.002	0.0025
    20	6.83021	0.002	0.0025
    21	7.08144	0.002	0.0025
    22	7.36351	0.002	0.0025
    23	7.66872	0.002	0.0025
    24	8.05898	0.002	0.0025
    25	8.53038	0.002	0.0025
    26	9.01733	0.002	0.0025
    27	9.60141	0.002	0.0025
    28	10.3119	0.002	0.0025
    29	11.3259	0.002	0.0025
    30	14.7988	0.002	0.0025
    31	60.7466	0.002	0.0025
    32	68.355	0.002	0.0025
    33	76.1472	0.002	0.0025
    34	82.0462	0.002	0.0025
    35	86.2247	0.002	0.0025
    36	83.9125	0.002	0.0025
    37	78.4906	0.002	0.0025

Measurement: t_set
  step	time	at
     1	0.000639039	0.000639039
     2	0.000639423	0.000639423
     3	0.000643273	0.000643273
     4	0.000643744	0.000643744
     5	0.000644292	0.000644292
     6	0.000648348	0.000648348
     7	0.000648995	0.000648995
     8	0.000653223	0.000653223
     9	0.000654027	0.000654027
    10	0.000658478	0.000658478
    11	0.00066309	0.00066309
    12	0.000667838	0.000667838
    13	0.000672729	0.000672729
    14	0.000677791	0.000677791
    15	0.00068294	0.00068294
    16	0.000688203	0.000688203
    17	0.000697335	0.000697335
    18	0.000702905	0.000702905
    19	0.000712315	0.000712315
    20	0.000721903	0.000721903
    21	0.00073186	0.00073186
    22	0.000742089	0.000742089
    23	0.000756638	0.000756638
    24	0.000771858	0.000771858
    25	0.000791919	0.000791919
    26	0.000821177	0.000821177
    27	0.00086482	0.00086482
    28	0.000924242	0.000924242
    29	0.00102686	0.00102686
    30	0.00120366	0.00120366
    31	0.00159161	0.00159161
    32	0	0
    33	0	0
    34	0	0
    35	0	0
    36	0	0
    37	0	0

Measurement: tduty
  step	tduty	FROM	TO
     1	1.9035e-006	0.00200203	0.00200393
     2	1.90172e-006	0.00200198	0.00200388
     3	1.88797e-006	0.00200183	0.00200372
     4	1.88455e-006	0.00200201	0.0020039
     5	1.87647e-006	0.00200195	0.00200382
     6	1.87066e-006	0.00200197	0.00200384
     7	1.86541e-006	0.00200194	0.00200381
     8	1.85872e-006	0.00200202	0.00200388
     9	1.8486e-006	0.00200203	0.00200388
    10	1.83756e-006	0.00200192	0.00200376
    11	1.83459e-006	0.00200194	0.00200378
    12	1.82356e-006	0.00200207	0.00200389
    13	1.81447e-006	0.00200207	0.00200388
    14	1.80962e-006	0.00200196	0.00200377
    15	1.79928e-006	0.00200203	0.00200383
    16	1.79641e-006	0.00200194	0.00200373
    17	1.78308e-006	0.00200192	0.0020037
    18	1.71768e-006	0.00200196	0.00200368
    19	1.6751e-006	0.00200224	0.00200392
    20	1.65727e-006	0.00200213	0.00200379
    21	1.64701e-006	0.00200215	0.0020038
    22	1.65393e-006	0.00200204	0.0020037
    23	1.65623e-006	0.0020021	0.00200375
    24	1.62771e-006	0.00200214	0.00200376
    25	1.56072e-006	0.00200229	0.00200385
    26	1.57874e-006	0.00200216	0.00200373
    27	1.5666e-006	0.00200203	0.00200359
    28	1.58862e-006	0.00200208	0.00200367
    29	1.51973e-006	0.00200208	0.0020036
    30	1.10904e-006	0.00200256	0.00200367
    31	7.90966e-007	0.00200293	0.00200372
    32	7.16207e-007	0.00200299	0.0020037
    33	6.22672e-007	0.00200296	0.00200358
    34	5.22531e-007	0.0020033	0.00200383
    35	3.9933e-007	0.00200368	0.00200408
    36	3.58138e-007	0.00200354	0.0020039
    37	3.59248e-007	0.00200357	0.00200393

Measurement: duty_ratio
  step	1-(tduty/t_period)
     1	0.612245
     2	0.612783
     3	0.615089
     4	0.615932
     5	0.617452
     6	0.618801
     7	0.620429
     8	0.621365
     9	0.623543
    10	0.625332
    11	0.6264
    12	0.6284
    13	0.63033
    14	0.631364
    15	0.633156
    16	0.633817
    17	0.637478
    18	0.649864
    19	0.658246
    20	0.662739
    21	0.664287
    22	0.663306
    23	0.662689
    24	0.667752
    25	0.681651
    26	0.678944
    27	0.680608
    28	0.677425
    29	0.692102
    30	0.773454
    31	0.839082
    32	0.854235
    33	0.873088
    34	0.89355
    35	0.918536
    36	0.926984
    37	0.926803

Measurement: voutpp
  step	PP(v(out))	FROM	TO
     1	0.0783424	0.002	0.0025
     2	0.0778084	0.002	0.0025
     3	0.0783691	0.002	0.0025
     4	0.0793152	0.002	0.0025
     5	0.078228	0.002	0.0025
     6	0.0798264	0.002	0.0025
     7	0.0797195	0.002	0.0025
     8	0.0775185	0.002	0.0025
     9	0.0796738	0.002	0.0025
    10	0.079464	0.002	0.0025
    11	0.0793953	0.002	0.0025
    12	0.0785675	0.002	0.0025
    13	0.0795822	0.002	0.0025
    14	0.0806503	0.002	0.0025
    15	0.0821571	0.002	0.0025
    16	0.0839882	0.002	0.0025
    17	0.0842361	0.002	0.0025
    18	0.0855064	0.002	0.0025
    19	0.0880547	0.002	0.0025
    20	0.0902596	0.002	0.0025
    21	0.0929489	0.002	0.0025
    22	0.0972252	0.002	0.0025
    23	0.108219	0.002	0.0025
    24	0.112186	0.002	0.0025
    25	0.130894	0.002	0.0025
    26	0.140015	0.002	0.0025
    27	0.174992	0.002	0.0025
    28	0.239937	0.002	0.0025
    29	0.358524	0.002	0.0025
    30	0.817436	0.002	0.0025
    31	1.01929	0.002	0.0025
    32	0.839653	0.002	0.0025
    33	0.643417	0.002	0.0025
    34	0.375483	0.002	0.0025
    35	0.126995	0.002	0.0025
    36	0.400063	0.002	0.0025
    37	0.53068	0.002	0.0025

Measurement: vout_avg
  step	AVG(v(out))	FROM	TO
     1	42.0852	0.002	0.0025
     2	42.0851	0.002	0.0025
     3	42.085	0.002	0.0025
     4	42.085	0.002	0.0025
     5	42.085	0.002	0.0025
     6	42.0849	0.002	0.0025
     7	42.0849	0.002	0.0025
     8	42.0849	0.002	0.0025
     9	42.0848	0.002	0.0025
    10	42.0848	0.002	0.0025
    11	42.0847	0.002	0.0025
    12	42.0847	0.002	0.0025
    13	42.0847	0.002	0.0025
    14	42.0847	0.002	0.0025
    15	42.0848	0.002	0.0025
    16	42.0848	0.002	0.0025
    17	42.0848	0.002	0.0025
    18	42.0847	0.002	0.0025
    19	42.0844	0.002	0.0025
    20	42.0841	0.002	0.0025
    21	42.0837	0.002	0.0025
    22	42.0837	0.002	0.0025
    23	42.0844	0.002	0.0025
    24	42.0854	0.002	0.0025
    25	42.0835	0.002	0.0025
    26	42.0814	0.002	0.0025
    27	42.0881	0.002	0.0025
    28	42.0804	0.002	0.0025
    29	42.0746	0.002	0.0025
    30	42.0775	0.002	0.0025
    31	41.7425	0.002	0.0025
    32	38.6956	0.002	0.0025
    33	35.2755	0.002	0.0025
    34	31.5977	0.002	0.0025
    35	27.7438	0.002	0.0025
    36	25.7903	0.002	0.0025
    37	24.801	0.002	0.0025


Date: Tue Mar 29 14:25:12 2022
Total elapsed time: 130.580 seconds.

tnom = 27
temp = 27
method = modified trap
totiter = 488509
traniter = 488509
tranpoints = 161920
accept = 116475
rejected = 45445
matrix size = 37
fillins = 7
solver = Normal
Matrix Compiler1: 2.01 KB object code size  0.3/0.2/[0.1]
Matrix Compiler2: 2.56 KB object code size  0.2/0.2/[0.1]

