Circuit: * C:\Users\user\Documents\LTspiceXVII\file\Montecarlo\LTC1871-7_F09.asc

Per .tran options, skipping operating point for transient analysis.
.step tol1=0 r_freq=120000
.step tol1=0.01 r_freq=120000
.step tol1=0.02 r_freq=120000
.step tol1=0.03 r_freq=120000
.step tol1=0.04 r_freq=120000
.step tol1=0.05 r_freq=120000
.step tol1=0.06 r_freq=120000
.step tol1=0.07 r_freq=120000
.step tol1=0.08 r_freq=120000
.step tol1=0.09 r_freq=120000
.step tol1=0.1 r_freq=120000
.step tol1=0.11 r_freq=120000
.step tol1=0.12 r_freq=120000
.step tol1=0.13 r_freq=120000
.step tol1=0.14 r_freq=120000
.step tol1=0.15 r_freq=120000
.step tol1=0.16 r_freq=120000
.step tol1=0.17 r_freq=120000
.step tol1=0.18 r_freq=120000
.step tol1=0.19 r_freq=120000
.step tol1=0.2 r_freq=120000
.step tol1=0.21 r_freq=120000
.step tol1=0.22 r_freq=120000
.step tol1=0.23 r_freq=120000
.step tol1=0.24 r_freq=120000
.step tol1=0.25 r_freq=120000
.step tol1=0.26 r_freq=120000
.step tol1=0.27 r_freq=120000
.step tol1=0.28 r_freq=120000
.step tol1=0.29 r_freq=120000
.step tol1=0.3 r_freq=120000
.step tol1=0.31 r_freq=120000
.step tol1=0.32 r_freq=120000
.step tol1=0.33 r_freq=120000
.step tol1=0.34 r_freq=120000
.step tol1=0.35 r_freq=120000
.step tol1=0.36 r_freq=120000
.step tol1=0 r_freq=155000
.step tol1=0.01 r_freq=155000
.step tol1=0.02 r_freq=155000
.step tol1=0.03 r_freq=155000
.step tol1=0.04 r_freq=155000
.step tol1=0.05 r_freq=155000
.step tol1=0.06 r_freq=155000
.step tol1=0.07 r_freq=155000
.step tol1=0.08 r_freq=155000
.step tol1=0.09 r_freq=155000
.step tol1=0.1 r_freq=155000
.step tol1=0.11 r_freq=155000
.step tol1=0.12 r_freq=155000
.step tol1=0.13 r_freq=155000
.step tol1=0.14 r_freq=155000
.step tol1=0.15 r_freq=155000
.step tol1=0.16 r_freq=155000
.step tol1=0.17 r_freq=155000
.step tol1=0.18 r_freq=155000
.step tol1=0.19 r_freq=155000
.step tol1=0.2 r_freq=155000
.step tol1=0.21 r_freq=155000
.step tol1=0.22 r_freq=155000
.step tol1=0.23 r_freq=155000
.step tol1=0.24 r_freq=155000
.step tol1=0.25 r_freq=155000
.step tol1=0.26 r_freq=155000
.step tol1=0.27 r_freq=155000
.step tol1=0.28 r_freq=155000
.step tol1=0.29 r_freq=155000
.step tol1=0.3 r_freq=155000
.step tol1=0.31 r_freq=155000
.step tol1=0.32 r_freq=155000
.step tol1=0.33 r_freq=155000
.step tol1=0.34 r_freq=155000
.step tol1=0.35 r_freq=155000
.step tol1=0.36 r_freq=155000
.step tol1=0 r_freq=250000
.step tol1=0.01 r_freq=250000
.step tol1=0.02 r_freq=250000
.step tol1=0.03 r_freq=250000
.step tol1=0.04 r_freq=250000
.step tol1=0.05 r_freq=250000
.step tol1=0.06 r_freq=250000
.step tol1=0.07 r_freq=250000
.step tol1=0.08 r_freq=250000
.step tol1=0.09 r_freq=250000
.step tol1=0.1 r_freq=250000
.step tol1=0.11 r_freq=250000
.step tol1=0.12 r_freq=250000
.step tol1=0.13 r_freq=250000
.step tol1=0.14 r_freq=250000
.step tol1=0.15 r_freq=250000
.step tol1=0.16 r_freq=250000
.step tol1=0.17 r_freq=250000
.step tol1=0.18 r_freq=250000
.step tol1=0.19 r_freq=250000
.step tol1=0.2 r_freq=250000
.step tol1=0.21 r_freq=250000
.step tol1=0.22 r_freq=250000
.step tol1=0.23 r_freq=250000
.step tol1=0.24 r_freq=250000
.step tol1=0.25 r_freq=250000
.step tol1=0.26 r_freq=250000
.step tol1=0.27 r_freq=250000
.step tol1=0.28 r_freq=250000
.step tol1=0.29 r_freq=250000
.step tol1=0.3 r_freq=250000
.step tol1=0.31 r_freq=250000
.step tol1=0.32 r_freq=250000
.step tol1=0.33 r_freq=250000
.step tol1=0.34 r_freq=250000
.step tol1=0.35 r_freq=250000
.step tol1=0.36 r_freq=250000
.step tol1=0 r_freq=300000
.step tol1=0.01 r_freq=300000
.step tol1=0.02 r_freq=300000
.step tol1=0.03 r_freq=300000
.step tol1=0.04 r_freq=300000
.step tol1=0.05 r_freq=300000
.step tol1=0.06 r_freq=300000
.step tol1=0.07 r_freq=300000
.step tol1=0.08 r_freq=300000
.step tol1=0.09 r_freq=300000
.step tol1=0.1 r_freq=300000
.step tol1=0.11 r_freq=300000
.step tol1=0.12 r_freq=300000
.step tol1=0.13 r_freq=300000
.step tol1=0.14 r_freq=300000
.step tol1=0.15 r_freq=300000
.step tol1=0.16 r_freq=300000
.step tol1=0.17 r_freq=300000
.step tol1=0.18 r_freq=300000
.step tol1=0.19 r_freq=300000
.step tol1=0.2 r_freq=300000
.step tol1=0.21 r_freq=300000
.step tol1=0.22 r_freq=300000
.step tol1=0.23 r_freq=300000
.step tol1=0.24 r_freq=300000
.step tol1=0.25 r_freq=300000
.step tol1=0.26 r_freq=300000
.step tol1=0.27 r_freq=300000
.step tol1=0.28 r_freq=300000
.step tol1=0.29 r_freq=300000
.step tol1=0.3 r_freq=300000
.step tol1=0.31 r_freq=300000
.step tol1=0.32 r_freq=300000
.step tol1=0.33 r_freq=300000
.step tol1=0.34 r_freq=300000
.step tol1=0.35 r_freq=300000
.step tol1=0.36 r_freq=300000
.step tol1=0 r_freq=400000
.step tol1=0.01 r_freq=400000
.step tol1=0.02 r_freq=400000
.step tol1=0.03 r_freq=400000
.step tol1=0.04 r_freq=400000
.step tol1=0.05 r_freq=400000
.step tol1=0.06 r_freq=400000
.step tol1=0.07 r_freq=400000
.step tol1=0.08 r_freq=400000
.step tol1=0.09 r_freq=400000
.step tol1=0.1 r_freq=400000
.step tol1=0.11 r_freq=400000
.step tol1=0.12 r_freq=400000
.step tol1=0.13 r_freq=400000
.step tol1=0.14 r_freq=400000
.step tol1=0.15 r_freq=400000
.step tol1=0.16 r_freq=400000
.step tol1=0.17 r_freq=400000
.step tol1=0.18 r_freq=400000
.step tol1=0.19 r_freq=400000
.step tol1=0.2 r_freq=400000
.step tol1=0.21 r_freq=400000
.step tol1=0.22 r_freq=400000
.step tol1=0.23 r_freq=400000
.step tol1=0.24 r_freq=400000
.step tol1=0.25 r_freq=400000
.step tol1=0.26 r_freq=400000
.step tol1=0.27 r_freq=400000
.step tol1=0.28 r_freq=400000
.step tol1=0.29 r_freq=400000
.step tol1=0.3 r_freq=400000
.step tol1=0.31 r_freq=400000
.step tol1=0.32 r_freq=400000
.step tol1=0.33 r_freq=400000
.step tol1=0.34 r_freq=400000
.step tol1=0.35 r_freq=400000
.step tol1=0.36 r_freq=400000


Measurement: freq
  step	1/t_period
     1	203707
     2	203614
     3	203875
     4	203798
     5	203865
     6	203777
     7	203478
     8	203707
     9	203644
    10	203894
    11	203642
    12	203777
    13	203734
    14	203709
    15	203884
    16	203842
    17	203312
    18	203842
    19	204020
    20	203504
    21	203832
    22	203572
    23	203662
    24	204121
    25	203976
    26	203362
    27	203875
    28	203053
    29	202601
    30	204271
    31	203445
    32	203524
    33	203819
    34	203720
    35	204003
    36	203876
    37	203750
    38	157900
    39	157852
    40	157772
    41	157930
    42	157848
    43	157826
    44	157659
    45	157882
    46	157875
    47	157857
    48	157761
    49	157960
    50	157809
    51	157762
    52	157761
    53	157702
    54	157888
    55	157799
    56	157866
    57	157983
    58	157813
    59	157774
    60	157922
    61	157923
    62	157757
    63	157770
    64	157920
    65	157665
    66	158179
    67	158290
    68	156389
    69	157914
    70	158011
    71	157869
    72	157842
    73	157882
    74	157817
    75	97859.4
    76	97894.1
    77	97917.8
    78	97846.3
    79	97847.6
    80	97872.4
    81	97896.2
    82	97849
    83	97833.5
    84	97870.8
    85	97952.9
    86	97870.3
    87	97870.2
    88	97875.1
    89	97762.6
    90	97932.5
    91	97889.5
    92	97784.2
    93	97858.1
    94	97851.4
    95	97921
    96	97830.3
    97	97906.6
    98	97897.4
    99	97924.2
   100	97895
   101	97861.6
   102	97877.4
   103	97915.3
   104	97816.7
   105	97849
   106	97798
   107	101424
   108	97813.2
   109	97866.3
   110	97837.4
   111	97864.9
   112	81578.3
   113	81534.7
   114	81551.5
   115	81596.8
   116	81544.4
   117	81540.6
   118	81617.6
   119	81564.9
   120	81559.1
   121	81542.5
   122	81538.8
   123	81567.8
   124	81559.1
   125	81564.8
   126	81571.5
   127	81551.4
   128	81573
   129	81572
   130	81518.4
   131	81544.8
   132	81578.1
   133	81580.4
   134	81561
   135	81596.5
   136	81590.6
   137	81601
   138	81565.2
   139	81602.7
   140	81567.1
   141	81577
   142	81523
   143	81475.8
   144	81084.7
   145	81579.1
   146	81587.2
   147	81551.6
   148	81577.7
   149	61160.1
   150	61160.8
   151	61200.9
   152	61169.3
   153	61175.7
   154	61197.8
   155	61188.6
   156	61185.8
   157	61157.8
   158	61187.7
   159	61202.2
   160	61182.4
   161	61178.6
   162	61167.7
   163	61183
   164	61199.2
   165	61191.7
   166	61202.5
   167	61192.1
   168	61180.7
   169	61174.8
   170	61178.1
   171	61203.5
   172	61184.3
   173	61170
   174	61140.9
   175	61176.3
   176	61192.5
   177	61192.8
   178	61213.5
   179	61184.9
   180	61234.3
   181	61106.6
   182	58341.2
   183	61097.2
   184	61192
   185	61175

Measurement: pin
  step	AVG(-v(in)*i(v1))	FROM	TO
     1	69.4536	0.002	0.0025
     2	69.5124	0.002	0.0025
     3	69.5724	0.002	0.0025
     4	69.6362	0.002	0.0025
     5	69.7087	0.002	0.0025
     6	69.7762	0.002	0.0025
     7	69.853	0.002	0.0025
     8	69.9334	0.002	0.0025
     9	70.0318	0.002	0.0025
    10	70.1205	0.002	0.0025
    11	70.2139	0.002	0.0025
    12	70.3338	0.002	0.0025
    13	70.4523	0.002	0.0025
    14	70.5814	0.002	0.0025
    15	70.7113	0.002	0.0025
    16	70.8732	0.002	0.0025
    17	71.0432	0.002	0.0025
    18	71.242	0.002	0.0025
    19	71.4688	0.002	0.0025
    20	71.7122	0.002	0.0025
    21	71.9719	0.002	0.0025
    22	72.209	0.002	0.0025
    23	72.4637	0.002	0.0025
    24	72.8685	0.002	0.0025
    25	73.5191	0.002	0.0025
    26	73.8583	0.002	0.0025
    27	74.3726	0.002	0.0025
    28	74.8463	0.002	0.0025
    29	75.8089	0.002	0.0025
    30	80.8114	0.002	0.0025
    31	128.924	0.002	0.0025
    32	126.28	0.002	0.0025
    33	123.052	0.002	0.0025
    34	119.163	0.002	0.0025
    35	114.551	0.002	0.0025
    36	107.71	0.002	0.0025
    37	100.083	0.002	0.0025
    38	68.2896	0.002	0.0025
    39	68.3385	0.002	0.0025
    40	68.3763	0.002	0.0025
    41	68.4157	0.002	0.0025
    42	68.4661	0.002	0.0025
    43	68.5181	0.002	0.0025
    44	68.5744	0.002	0.0025
    45	68.6279	0.002	0.0025
    46	68.6977	0.002	0.0025
    47	68.7645	0.002	0.0025
    48	68.8363	0.002	0.0025
    49	68.9097	0.002	0.0025
    50	68.9977	0.002	0.0025
    51	69.0793	0.002	0.0025
    52	69.1912	0.002	0.0025
    53	69.2869	0.002	0.0025
    54	69.4084	0.002	0.0025
    55	69.5281	0.002	0.0025
    56	69.6634	0.002	0.0025
    57	69.8172	0.002	0.0025
    58	69.9932	0.002	0.0025
    59	70.1805	0.002	0.0025
    60	70.4046	0.002	0.0025
    61	70.6498	0.002	0.0025
    62	70.9345	0.002	0.0025
    63	71.1904	0.002	0.0025
    64	71.598	0.002	0.0025
    65	72.1233	0.002	0.0025
    66	72.5194	0.002	0.0025
    67	73.0381	0.002	0.0025
    68	72.8797	0.002	0.0025
    69	129.089	0.002	0.0025
    70	126.021	0.002	0.0025
    71	122.097	0.002	0.0025
    72	117.141	0.002	0.0025
    73	110.856	0.002	0.0025
    74	102.936	0.002	0.0025
    75	66.839	0.002	0.0025
    76	66.8631	0.002	0.0025
    77	66.88	0.002	0.0025
    78	66.9043	0.002	0.0025
    79	66.9323	0.002	0.0025
    80	66.9555	0.002	0.0025
    81	66.9834	0.002	0.0025
    82	67.0189	0.002	0.0025
    83	67.0458	0.002	0.0025
    84	67.0811	0.002	0.0025
    85	67.1221	0.002	0.0025
    86	67.161	0.002	0.0025
    87	67.1996	0.002	0.0025
    88	67.2454	0.002	0.0025
    89	67.289	0.002	0.0025
    90	67.3444	0.002	0.0025
    91	67.4098	0.002	0.0025
    92	67.4725	0.002	0.0025
    93	67.5387	0.002	0.0025
    94	67.6148	0.002	0.0025
    95	67.6953	0.002	0.0025
    96	67.7916	0.002	0.0025
    97	67.892	0.002	0.0025
    98	67.995	0.002	0.0025
    99	68.1302	0.002	0.0025
   100	68.2547	0.002	0.0025
   101	68.4213	0.002	0.0025
   102	68.6036	0.002	0.0025
   103	68.8353	0.002	0.0025
   104	69.0622	0.002	0.0025
   105	69.3993	0.002	0.0025
   106	69.6249	0.002	0.0025
   107	69.2805	0.002	0.0025
   108	126.587	0.002	0.0025
   109	121.365	0.002	0.0025
   110	114.462	0.002	0.0025
   111	106.554	0.002	0.0025
   112	66.5158	0.002	0.0025
   113	66.5306	0.002	0.0025
   114	66.553	0.002	0.0025
   115	66.5699	0.002	0.0025
   116	66.5878	0.002	0.0025
   117	66.6023	0.002	0.0025
   118	66.6262	0.002	0.0025
   119	66.6488	0.002	0.0025
   120	66.6719	0.002	0.0025
   121	66.6992	0.002	0.0025
   122	66.7302	0.002	0.0025
   123	66.76	0.002	0.0025
   124	66.794	0.002	0.0025
   125	66.8235	0.002	0.0025
   126	66.8671	0.002	0.0025
   127	66.9013	0.002	0.0025
   128	66.9432	0.002	0.0025
   129	66.9956	0.002	0.0025
   130	67.0426	0.002	0.0025
   131	67.0988	0.002	0.0025
   132	67.1641	0.002	0.0025
   133	67.2336	0.002	0.0025
   134	67.3028	0.002	0.0025
   135	67.386	0.002	0.0025
   136	67.4778	0.002	0.0025
   137	67.58	0.002	0.0025
   138	67.7062	0.002	0.0025
   139	67.8304	0.002	0.0025
   140	67.9838	0.002	0.0025
   141	68.1677	0.002	0.0025
   142	68.3672	0.002	0.0025
   143	68.6136	0.002	0.0025
   144	68.7449	0.002	0.0025
   145	127.885	0.002	0.0025
   146	122.958	0.002	0.0025
   147	115.609	0.002	0.0025
   148	107.562	0.002	0.0025
   149	66.1901	0.002	0.0025
   150	66.196	0.002	0.0025
   151	66.2067	0.002	0.0025
   152	66.2242	0.002	0.0025
   153	66.2316	0.002	0.0025
   154	66.2468	0.002	0.0025
   155	66.2656	0.002	0.0025
   156	66.281	0.002	0.0025
   157	66.287	0.002	0.0025
   158	66.3106	0.002	0.0025
   159	66.3311	0.002	0.0025
   160	66.3428	0.002	0.0025
   161	66.3723	0.002	0.0025
   162	66.3998	0.002	0.0025
   163	66.4242	0.002	0.0025
   164	66.4484	0.002	0.0025
   165	66.4711	0.002	0.0025
   166	66.5062	0.002	0.0025
   167	66.5391	0.002	0.0025
   168	66.5695	0.002	0.0025
   169	66.6158	0.002	0.0025
   170	66.6544	0.002	0.0025
   171	66.7002	0.002	0.0025
   172	66.7511	0.002	0.0025
   173	66.8012	0.002	0.0025
   174	66.8724	0.002	0.0025
   175	66.9414	0.002	0.0025
   176	67.0233	0.002	0.0025
   177	67.1219	0.002	0.0025
   178	67.2263	0.002	0.0025
   179	67.3404	0.002	0.0025
   180	67.4911	0.002	0.0025
   181	67.6473	0.002	0.0025
   182	66.9766	0.002	0.0025
   183	125.053	0.002	0.0025
   184	116.767	0.002	0.0025
   185	108.51	0.002	0.0025

Measurement: pout
  step	AVG(v(out)*i(rload))	FROM	TO
     1	63.2557	0.002	0.0025
     2	63.2557	0.002	0.0025
     3	63.2553	0.002	0.0025
     4	63.2552	0.002	0.0025
     5	63.2552	0.002	0.0025
     6	63.2549	0.002	0.0025
     7	63.255	0.002	0.0025
     8	63.2549	0.002	0.0025
     9	63.2548	0.002	0.0025
    10	63.2547	0.002	0.0025
    11	63.2545	0.002	0.0025
    12	63.2544	0.002	0.0025
    13	63.2544	0.002	0.0025
    14	63.2543	0.002	0.0025
    15	63.2546	0.002	0.0025
    16	63.2547	0.002	0.0025
    17	63.2545	0.002	0.0025
    18	63.2543	0.002	0.0025
    19	63.2536	0.002	0.0025
    20	63.2527	0.002	0.0025
    21	63.2513	0.002	0.0025
    22	63.2512	0.002	0.0025
    23	63.2533	0.002	0.0025
    24	63.2564	0.002	0.0025
    25	63.2508	0.002	0.0025
    26	63.2443	0.002	0.0025
    27	63.2647	0.002	0.0025
    28	63.2415	0.002	0.0025
    29	63.2243	0.002	0.0025
    30	63.2343	0.002	0.0025
    31	62.2321	0.002	0.0025
    32	53.4785	0.002	0.0025
    33	44.4425	0.002	0.0025
    34	35.6579	0.002	0.0025
    35	27.49	0.002	0.0025
    36	23.7554	0.002	0.0025
    37	21.9681	0.002	0.0025
    38	63.2559	0.002	0.0025
    39	63.2556	0.002	0.0025
    40	63.2555	0.002	0.0025
    41	63.2556	0.002	0.0025
    42	63.2554	0.002	0.0025
    43	63.2554	0.002	0.0025
    44	63.2555	0.002	0.0025
    45	63.2553	0.002	0.0025
    46	63.2552	0.002	0.0025
    47	63.2553	0.002	0.0025
    48	63.255	0.002	0.0025
    49	63.2551	0.002	0.0025
    50	63.2548	0.002	0.0025
    51	63.2546	0.002	0.0025
    52	63.2546	0.002	0.0025
    53	63.2544	0.002	0.0025
    54	63.2543	0.002	0.0025
    55	63.2541	0.002	0.0025
    56	63.2541	0.002	0.0025
    57	63.2543	0.002	0.0025
    58	63.2541	0.002	0.0025
    59	63.2542	0.002	0.0025
    60	63.2539	0.002	0.0025
    61	63.253	0.002	0.0025
    62	63.2518	0.002	0.0025
    63	63.2531	0.002	0.0025
    64	63.2543	0.002	0.0025
    65	63.2486	0.002	0.0025
    66	63.2578	0.002	0.0025
    67	63.2658	0.002	0.0025
    68	63.2603	0.002	0.0025
    69	61.898	0.002	0.0025
    70	50.8045	0.002	0.0025
    71	39.6454	0.002	0.0025
    72	29.299	0.002	0.0025
    73	22.1049	0.002	0.0025
    74	20.4296	0.002	0.0025
    75	63.2552	0.002	0.0025
    76	63.2552	0.002	0.0025
    77	63.2553	0.002	0.0025
    78	63.2551	0.002	0.0025
    79	63.255	0.002	0.0025
    80	63.2551	0.002	0.0025
    81	63.255	0.002	0.0025
    82	63.2548	0.002	0.0025
    83	63.2549	0.002	0.0025
    84	63.2549	0.002	0.0025
    85	63.2549	0.002	0.0025
    86	63.2546	0.002	0.0025
    87	63.2546	0.002	0.0025
    88	63.2547	0.002	0.0025
    89	63.2549	0.002	0.0025
    90	63.2548	0.002	0.0025
    91	63.2546	0.002	0.0025
    92	63.2545	0.002	0.0025
    93	63.2545	0.002	0.0025
    94	63.2546	0.002	0.0025
    95	63.2545	0.002	0.0025
    96	63.254	0.002	0.0025
    97	63.2541	0.002	0.0025
    98	63.254	0.002	0.0025
    99	63.254	0.002	0.0025
   100	63.2541	0.002	0.0025
   101	63.2537	0.002	0.0025
   102	63.2538	0.002	0.0025
   103	63.253	0.002	0.0025
   104	63.253	0.002	0.0025
   105	63.2515	0.002	0.0025
   106	63.2548	0.002	0.0025
   107	63.3155	0.002	0.0025
   108	52.4536	0.002	0.0025
   109	35.8789	0.002	0.0025
   110	22.8033	0.002	0.0025
   111	18.0803	0.002	0.0025
   112	63.2538	0.002	0.0025
   113	63.2537	0.002	0.0025
   114	63.2536	0.002	0.0025
   115	63.2537	0.002	0.0025
   116	63.2534	0.002	0.0025
   117	63.2536	0.002	0.0025
   118	63.2535	0.002	0.0025
   119	63.2533	0.002	0.0025
   120	63.2534	0.002	0.0025
   121	63.2532	0.002	0.0025
   122	63.2533	0.002	0.0025
   123	63.2533	0.002	0.0025
   124	63.2533	0.002	0.0025
   125	63.2536	0.002	0.0025
   126	63.2533	0.002	0.0025
   127	63.2533	0.002	0.0025
   128	63.2533	0.002	0.0025
   129	63.2533	0.002	0.0025
   130	63.2532	0.002	0.0025
   131	63.2531	0.002	0.0025
   132	63.2533	0.002	0.0025
   133	63.2529	0.002	0.0025
   134	63.2531	0.002	0.0025
   135	63.2531	0.002	0.0025
   136	63.2529	0.002	0.0025
   137	63.2526	0.002	0.0025
   138	63.2523	0.002	0.0025
   139	63.2525	0.002	0.0025
   140	63.2523	0.002	0.0025
   141	63.2523	0.002	0.0025
   142	63.252	0.002	0.0025
   143	63.251	0.002	0.0025
   144	63.2537	0.002	0.0025
   145	60.4242	0.002	0.0025
   146	39.327	0.002	0.0025
   147	23.7349	0.002	0.0025
   148	17.3582	0.002	0.0025
   149	63.2505	0.002	0.0025
   150	63.2504	0.002	0.0025
   151	63.2504	0.002	0.0025
   152	63.2503	0.002	0.0025
   153	63.2505	0.002	0.0025
   154	63.2502	0.002	0.0025
   155	63.2504	0.002	0.0025
   156	63.2503	0.002	0.0025
   157	63.2504	0.002	0.0025
   158	63.2502	0.002	0.0025
   159	63.2503	0.002	0.0025
   160	63.2503	0.002	0.0025
   161	63.2501	0.002	0.0025
   162	63.2501	0.002	0.0025
   163	63.2502	0.002	0.0025
   164	63.25	0.002	0.0025
   165	63.2502	0.002	0.0025
   166	63.2501	0.002	0.0025
   167	63.25	0.002	0.0025
   168	63.2499	0.002	0.0025
   169	63.2499	0.002	0.0025
   170	63.2499	0.002	0.0025
   171	63.2499	0.002	0.0025
   172	63.2497	0.002	0.0025
   173	63.2498	0.002	0.0025
   174	63.2493	0.002	0.0025
   175	63.2496	0.002	0.0025
   176	63.2496	0.002	0.0025
   177	63.2496	0.002	0.0025
   178	63.2492	0.002	0.0025
   179	63.2489	0.002	0.0025
   180	63.2492	0.002	0.0025
   181	63.2479	0.002	0.0025
   182	63.2561	0.002	0.0025
   183	35.224	0.002	0.0025
   184	19.1839	0.002	0.0025
   185	15.7003	0.002	0.0025

Measurement: eff
  step	pout/pin
     1	0.910762
     2	0.909991
     3	0.909201
     4	0.908367
     5	0.907421
     6	0.906541
     7	0.905544
     8	0.904502
     9	0.903229
    10	0.902086
    11	0.900884
    12	0.899345
    13	0.897832
    14	0.896188
    15	0.894547
    16	0.892505
    17	0.890367
    18	0.887879
    19	0.885052
    20	0.882035
    21	0.878833
    22	0.875947
    23	0.872897
    24	0.86809
    25	0.860332
    26	0.856293
    27	0.850645
    28	0.844951
    29	0.833995
    30	0.782492
    31	0.482705
    32	0.423492
    33	0.361168
    34	0.299237
    35	0.239979
    36	0.220549
    37	0.219498
    38	0.926289
    39	0.925621
    40	0.925109
    41	0.924578
    42	0.923894
    43	0.923193
    44	0.922436
    45	0.921713
    46	0.920776
    47	0.919882
    48	0.918918
    49	0.917942
    50	0.916767
    51	0.915682
    52	0.9142
    53	0.912935
    54	0.911336
    55	0.909762
    56	0.907997
    57	0.905999
    58	0.903718
    59	0.901308
    60	0.898434
    61	0.895303
    62	0.891693
    63	0.888507
    64	0.883464
    65	0.876951
    66	0.872288
    67	0.866203
    68	0.86801
    69	0.479498
    70	0.403145
    71	0.324705
    72	0.250117
    73	0.199402
    74	0.19847
    75	0.946382
    76	0.946041
    77	0.945803
    78	0.945456
    79	0.94506
    80	0.944734
    81	0.944338
    82	0.943836
    83	0.943458
    84	0.942961
    85	0.942385
    86	0.941835
    87	0.941295
    88	0.940655
    89	0.940048
    90	0.939272
    91	0.938359
    92	0.937485
    93	0.936567
    94	0.935513
    95	0.9344
    96	0.933065
    97	0.931687
    98	0.930274
    99	0.928428
   100	0.926736
   101	0.924474
   102	0.922018
   103	0.918904
   104	0.915886
   105	0.911414
   106	0.908509
   107	0.9139
   108	0.414368
   109	0.295627
   110	0.199221
   111	0.169682
   112	0.950959
   113	0.950745
   114	0.950425
   115	0.950184
   116	0.949924
   117	0.949721
   118	0.949378
   119	0.949053
   120	0.948727
   121	0.948336
   122	0.947896
   123	0.947473
   124	0.946991
   125	0.946577
   126	0.945956
   127	0.945472
   128	0.944881
   129	0.944142
   130	0.943477
   131	0.942687
   132	0.941772
   133	0.940794
   134	0.939829
   135	0.938669
   136	0.937388
   137	0.935967
   138	0.934218
   139	0.93251
   140	0.930402
   141	0.927894
   142	0.92518
   143	0.921843
   144	0.920122
   145	0.472487
   146	0.31984
   147	0.205304
   148	0.161379
   149	0.955587
   150	0.955501
   151	0.955348
   152	0.955094
   153	0.954989
   154	0.954766
   155	0.954498
   156	0.954276
   157	0.95419
   158	0.953848
   159	0.953555
   160	0.953387
   161	0.95296
   162	0.952564
   163	0.952217
   164	0.951866
   165	0.951545
   166	0.951041
   167	0.950569
   168	0.950133
   169	0.949472
   170	0.948924
   171	0.948272
   172	0.947546
   173	0.946836
   174	0.945821
   175	0.94485
   176	0.943695
   177	0.942309
   178	0.940841
   179	0.939243
   180	0.937149
   181	0.934966
   182	0.944451
   183	0.281673
   184	0.164293
   185	0.14469

Measurement: t_period
  step	t2-t1
     1	4.90902e-006
     2	4.91126e-006
     3	4.90496e-006
     4	4.90681e-006
     5	4.9052e-006
     6	4.90732e-006
     7	4.91452e-006
     8	4.909e-006
     9	4.91053e-006
    10	4.90451e-006
    11	4.91059e-006
    12	4.90732e-006
    13	4.90836e-006
    14	4.90896e-006
    15	4.90475e-006
    16	4.90576e-006
    17	4.91854e-006
    18	4.90575e-006
    19	4.90147e-006
    20	4.91391e-006
    21	4.906e-006
    22	4.91226e-006
    23	4.91009e-006
    24	4.89906e-006
    25	4.90253e-006
    26	4.91734e-006
    27	4.90496e-006
    28	4.92482e-006
    29	4.93581e-006
    30	4.89545e-006
    31	4.91533e-006
    32	4.91343e-006
    33	4.90632e-006
    34	4.9087e-006
    35	4.90189e-006
    36	4.90494e-006
    37	4.90797e-006
    38	6.33311e-006
    39	6.33503e-006
    40	6.33825e-006
    41	6.33192e-006
    42	6.33522e-006
    43	6.3361e-006
    44	6.34282e-006
    45	6.33383e-006
    46	6.33414e-006
    47	6.33483e-006
    48	6.3387e-006
    49	6.33071e-006
    50	6.33677e-006
    51	6.33864e-006
    52	6.33872e-006
    53	6.34108e-006
    54	6.3336e-006
    55	6.33718e-006
    56	6.33449e-006
    57	6.32978e-006
    58	6.33661e-006
    59	6.33817e-006
    60	6.33225e-006
    61	6.33219e-006
    62	6.33888e-006
    63	6.33834e-006
    64	6.33231e-006
    65	6.34258e-006
    66	6.32193e-006
    67	6.31752e-006
    68	6.3943e-006
    69	6.33255e-006
    70	6.32866e-006
    71	6.33438e-006
    72	6.33545e-006
    73	6.33385e-006
    74	6.33647e-006
    75	1.02187e-005
    76	1.02151e-005
    77	1.02126e-005
    78	1.02201e-005
    79	1.022e-005
    80	1.02174e-005
    81	1.02149e-005
    82	1.02198e-005
    83	1.02214e-005
    84	1.02175e-005
    85	1.0209e-005
    86	1.02176e-005
    87	1.02176e-005
    88	1.02171e-005
    89	1.02289e-005
    90	1.02111e-005
    91	1.02156e-005
    92	1.02266e-005
    93	1.02189e-005
    94	1.02196e-005
    95	1.02123e-005
    96	1.02218e-005
    97	1.02138e-005
    98	1.02148e-005
    99	1.0212e-005
   100	1.0215e-005
   101	1.02185e-005
   102	1.02169e-005
   103	1.02129e-005
   104	1.02232e-005
   105	1.02198e-005
   106	1.02252e-005
   107	9.85957e-006
   108	1.02236e-005
   109	1.0218e-005
   110	1.0221e-005
   111	1.02182e-005
   112	1.22582e-005
   113	1.22647e-005
   114	1.22622e-005
   115	1.22554e-005
   116	1.22633e-005
   117	1.22638e-005
   118	1.22523e-005
   119	1.22602e-005
   120	1.22611e-005
   121	1.22635e-005
   122	1.22641e-005
   123	1.22597e-005
   124	1.22611e-005
   125	1.22602e-005
   126	1.22592e-005
   127	1.22622e-005
   128	1.2259e-005
   129	1.22591e-005
   130	1.22672e-005
   131	1.22632e-005
   132	1.22582e-005
   133	1.22578e-005
   134	1.22608e-005
   135	1.22554e-005
   136	1.22563e-005
   137	1.22548e-005
   138	1.22601e-005
   139	1.22545e-005
   140	1.22598e-005
   141	1.22584e-005
   142	1.22665e-005
   143	1.22736e-005
   144	1.23328e-005
   145	1.2258e-005
   146	1.22568e-005
   147	1.22622e-005
   148	1.22583e-005
   149	1.63505e-005
   150	1.63503e-005
   151	1.63396e-005
   152	1.63481e-005
   153	1.63464e-005
   154	1.63405e-005
   155	1.63429e-005
   156	1.63437e-005
   157	1.63512e-005
   158	1.63431e-005
   159	1.63393e-005
   160	1.63446e-005
   161	1.63456e-005
   162	1.63485e-005
   163	1.63444e-005
   164	1.63401e-005
   165	1.63421e-005
   166	1.63392e-005
   167	1.6342e-005
   168	1.6345e-005
   169	1.63466e-005
   170	1.63457e-005
   171	1.63389e-005
   172	1.63441e-005
   173	1.63479e-005
   174	1.63557e-005
   175	1.63462e-005
   176	1.63419e-005
   177	1.63418e-005
   178	1.63363e-005
   179	1.63439e-005
   180	1.63307e-005
   181	1.63648e-005
   182	1.71406e-005
   183	1.63674e-005
   184	1.6342e-005
   185	1.63465e-005

Measurement: vgmax
  step	MAX(v(vgate))	FROM	TO
     1	6.9981	0	0.0025
     2	6.99816	0	0.0025
     3	6.99816	0	0.0025
     4	6.99815	0	0.0025
     5	6.99819	0	0.0025
     6	6.99819	0	0.0025
     7	6.99823	0	0.0025
     8	6.99823	0	0.0025
     9	6.99825	0	0.0025
    10	6.99826	0	0.0025
    11	6.99829	0	0.0025
    12	6.99833	0	0.0025
    13	6.99833	0	0.0025
    14	6.99835	0	0.0025
    15	6.99838	0	0.0025
    16	6.9984	0	0.0025
    17	6.99842	0	0.0025
    18	6.99846	0	0.0025
    19	6.99849	0	0.0025
    20	6.9985	0	0.0025
    21	6.99853	0	0.0025
    22	6.99856	0	0.0025
    23	6.99864	0	0.0025
    24	6.99864	0	0.0025
    25	6.99872	0	0.0025
    26	6.99876	0	0.0025
    27	6.99876	0	0.0025
    28	6.99882	0	0.0025
    29	6.99886	0	0.0025
    30	6.99893	0	0.0025
    31	6.99543	0	0.0025
    32	6.99803	0	0.0025
    33	7.00015	0	0.0025
    34	7.0019	0	0.0025
    35	7.00393	0	0.0025
    36	7.00559	0	0.0025
    37	7.00615	0	0.0025
    38	7.00507	0	0.0025
    39	7.00508	0	0.0025
    40	7.0051	0	0.0025
    41	7.0051	0	0.0025
    42	7.00512	0	0.0025
    43	7.00513	0	0.0025
    44	7.00515	0	0.0025
    45	7.00515	0	0.0025
    46	7.00517	0	0.0025
    47	7.00518	0	0.0025
    48	7.00521	0	0.0025
    49	7.00521	0	0.0025
    50	7.00525	0	0.0025
    51	7.00528	0	0.0025
    52	7.00528	0	0.0025
    53	7.0053	0	0.0025
    54	7.00533	0	0.0025
    55	7.00536	0	0.0025
    56	7.00536	0	0.0025
    57	7.00539	0	0.0025
    58	7.00542	0	0.0025
    59	7.00545	0	0.0025
    60	7.00547	0	0.0025
    61	7.00549	0	0.0025
    62	7.00552	0	0.0025
    63	7.00557	0	0.0025
    64	7.00559	0	0.0025
    65	7.00563	0	0.0025
    66	7.00567	0	0.0025
    67	7.00618	0	0.0025
    68	7.00573	0	0.0025
    69	7.00594	0	0.0025
    70	7.00793	0	0.0025
    71	7.00941	0	0.0025
    72	7.01065	0	0.0025
    73	7.01256	0	0.0025
    74	7.01288	0	0.0025
    75	7.01599	0	0.0025
    76	7.01609	0	0.0025
    77	7.01608	0	0.0025
    78	7.01603	0	0.0025
    79	7.01598	0	0.0025
    80	7.01598	0	0.0025
    81	7.016	0	0.0025
    82	7.01601	0	0.0025
    83	7.01619	0	0.0025
    84	7.01625	0	0.0025
    85	7.0161	0	0.0025
    86	7.01604	0	0.0025
    87	7.01609	0	0.0025
    88	7.0162	0	0.0025
    89	7.01608	0	0.0025
    90	7.01628	0	0.0025
    91	7.01611	0	0.0025
    92	7.01617	0	0.0025
    93	7.01615	0	0.0025
    94	7.01616	0	0.0025
    95	7.0162	0	0.0025
    96	7.01619	0	0.0025
    97	7.0162	0	0.0025
    98	7.01623	0	0.0025
    99	7.01625	0	0.0025
   100	7.01627	0	0.0025
   101	7.01631	0	0.0025
   102	7.01634	0	0.0025
   103	7.01635	0	0.0025
   104	7.0172	0	0.0025
   105	7.01803	0	0.0025
   106	7.02687	0	0.0025
   107	7.0332	0	0.0025
   108	7.03753	0	0.0025
   109	7.03881	0	0.0025
   110	7.03574	0	0.0025
   111	7.03603	0	0.0025
   112	7.0195	0	0.0025
   113	7.01951	0	0.0025
   114	7.01951	0	0.0025
   115	7.01951	0	0.0025
   116	7.01951	0	0.0025
   117	7.01951	0	0.0025
   118	7.01952	0	0.0025
   119	7.01951	0	0.0025
   120	7.01951	0	0.0025
   121	7.01952	0	0.0025
   122	7.0195	0	0.0025
   123	7.01959	0	0.0025
   124	7.01962	0	0.0025
   125	7.0196	0	0.0025
   126	7.01958	0	0.0025
   127	7.01966	0	0.0025
   128	7.01963	0	0.0025
   129	7.01962	0	0.0025
   130	7.01969	0	0.0025
   131	7.01967	0	0.0025
   132	7.01974	0	0.0025
   133	7.01971	0	0.0025
   134	7.01978	0	0.0025
   135	7.01975	0	0.0025
   136	7.01979	0	0.0025
   137	7.01982	0	0.0025
   138	7.01983	0	0.0025
   139	7.01984	0	0.0025
   140	7.01985	0	0.0025
   141	7.02081	0	0.0025
   142	7.03215	0	0.0025
   143	7.0438	0	0.0025
   144	7.05111	0	0.0025
   145	7.05841	0	0.0025
   146	7.05274	0	0.0025
   147	7.04259	0	0.0025
   148	7.04195	0	0.0025
   149	7.02505	0	0.0025
   150	7.02502	0	0.0025
   151	7.02505	0	0.0025
   152	7.02517	0	0.0025
   153	7.02512	0	0.0025
   154	7.0251	0	0.0025
   155	7.02492	0	0.0025
   156	7.02442	0	0.0025
   157	7.02439	0	0.0025
   158	7.02449	0	0.0025
   159	7.02459	0	0.0025
   160	7.02455	0	0.0025
   161	7.02465	0	0.0025
   162	7.02486	0	0.0025
   163	7.02484	0	0.0025
   164	7.02449	0	0.0025
   165	7.02465	0	0.0025
   166	7.02486	0	0.0025
   167	7.02511	0	0.0025
   168	7.02469	0	0.0025
   169	7.02476	0	0.0025
   170	7.02491	0	0.0025
   171	7.02469	0	0.0025
   172	7.02483	0	0.0025
   173	7.02533	0	0.0025
   174	7.02488	0	0.0025
   175	7.02498	0	0.0025
   176	7.02482	0	0.0025
   177	7.02495	0	0.0025
   178	7.03552	0	0.0025
   179	7.05965	0	0.0025
   180	7.07534	0	0.0025
   181	7.08942	0	0.0025
   182	7.09509	0	0.0025
   183	7.03942	0	0.0025
   184	7.03079	0	0.0025
   185	7.03068	0	0.0025

Measurement: t1
  step	time	at
     1	0.002002	0.002002
     2	0.00200195	0.00200195
     3	0.00200181	0.00200181
     4	0.00200198	0.00200198
     5	0.00200192	0.00200192
     6	0.00200195	0.00200195
     7	0.00200191	0.00200191
     8	0.00200199	0.00200199
     9	0.002002	0.002002
    10	0.00200189	0.00200189
    11	0.00200191	0.00200191
    12	0.00200204	0.00200204
    13	0.00200204	0.00200204
    14	0.00200193	0.00200193
    15	0.002002	0.002002
    16	0.00200191	0.00200191
    17	0.00200189	0.00200189
    18	0.00200189	0.00200189
    19	0.00200214	0.00200214
    20	0.00200203	0.00200203
    21	0.00200205	0.00200205
    22	0.00200195	0.00200195
    23	0.002002	0.002002
    24	0.00200204	0.00200204
    25	0.00200219	0.00200219
    26	0.00200206	0.00200206
    27	0.00200193	0.00200193
    28	0.00200199	0.00200199
    29	0.00200198	0.00200198
    30	0.00200247	0.00200247
    31	0.00200285	0.00200285
    32	0.00200292	0.00200292
    33	0.00200291	0.00200291
    34	0.00200326	0.00200326
    35	0.00200365	0.00200365
    36	0.0020035	0.0020035
    37	0.00200354	0.00200354
    38	0.00200141	0.00200141
    39	0.00200138	0.00200138
    40	0.00200145	0.00200145
    41	0.00200141	0.00200141
    42	0.00200148	0.00200148
    43	0.00200156	0.00200156
    44	0.00200142	0.00200142
    45	0.00200153	0.00200153
    46	0.00200162	0.00200162
    47	0.00200147	0.00200147
    48	0.00200143	0.00200143
    49	0.00200149	0.00200149
    50	0.00200157	0.00200157
    51	0.00200157	0.00200157
    52	0.00200156	0.00200156
    53	0.00200156	0.00200156
    54	0.00200155	0.00200155
    55	0.00200156	0.00200156
    56	0.00200156	0.00200156
    57	0.00200158	0.00200158
    58	0.00200151	0.00200151
    59	0.00200162	0.00200162
    60	0.00200157	0.00200157
    61	0.00200165	0.00200165
    62	0.0020017	0.0020017
    63	0.0020017	0.0020017
    64	0.00200164	0.00200164
    65	0.00200171	0.00200171
    66	0.0020017	0.0020017
    67	0.00200178	0.00200178
    68	0.00200146	0.00200146
    69	0.00200264	0.00200264
    70	0.00200306	0.00200306
    71	0.00200305	0.00200305
    72	0.00200321	0.00200321
    73	0.00200356	0.00200356
    74	0.00200352	0.00200352
    75	0.00200003	0.00200003
    76	0.00200009	0.00200009
    77	0.00200005	0.00200005
    78	0.00200007	0.00200007
    79	0.00200004	0.00200004
    80	0.00200007	0.00200007
    81	0.00200008	0.00200008
    82	0.00200008	0.00200008
    83	0.00200003	0.00200003
    84	0.00200012	0.00200012
    85	0.00200013	0.00200013
    86	0.0020001	0.0020001
    87	0.00200012	0.00200012
    88	0.00200012	0.00200012
    89	0.00200011	0.00200011
    90	0.00200007	0.00200007
    91	0.00200023	0.00200023
    92	0.00200007	0.00200007
    93	0.00200022	0.00200022
    94	0.00200015	0.00200015
    95	0.00200022	0.00200022
    96	0.00200017	0.00200017
    97	0.00200019	0.00200019
    98	0.00200023	0.00200023
    99	0.00200021	0.00200021
   100	0.00200028	0.00200028
   101	0.00200026	0.00200026
   102	0.00200028	0.00200028
   103	0.00200032	0.00200032
   104	0.0020003	0.0020003
   105	0.0020004	0.0020004
   106	0.00200039	0.00200039
   107	0.00200002	0.00200002
   108	0.00200228	0.00200228
   109	0.00200264	0.00200264
   110	0.00200332	0.00200332
   111	0.00200351	0.00200351
   112	0.0020072	0.0020072
   113	0.00200716	0.00200716
   114	0.0020072	0.0020072
   115	0.00200718	0.00200718
   116	0.00200721	0.00200721
   117	0.00200718	0.00200718
   118	0.00200723	0.00200723
   119	0.00200722	0.00200722
   120	0.00200731	0.00200731
   121	0.00200726	0.00200726
   122	0.00200718	0.00200718
   123	0.00200724	0.00200724
   124	0.00200724	0.00200724
   125	0.00200726	0.00200726
   126	0.00200724	0.00200724
   127	0.00200722	0.00200722
   128	0.00200732	0.00200732
   129	0.0020073	0.0020073
   130	0.00200732	0.00200732
   131	0.00200735	0.00200735
   132	0.00200732	0.00200732
   133	0.00200736	0.00200736
   134	0.00200739	0.00200739
   135	0.00200741	0.00200741
   136	0.00200737	0.00200737
   137	0.00200746	0.00200746
   138	0.0020074	0.0020074
   139	0.00200747	0.00200747
   140	0.0020075	0.0020075
   141	0.00200752	0.00200752
   142	0.00200746	0.00200746
   143	0.00200752	0.00200752
   144	0.00200748	0.00200748
   145	0.00200956	0.00200956
   146	0.00201031	0.00201031
   147	0.00201092	0.00201092
   148	0.00200005	0.00200005
   149	0.00200539	0.00200539
   150	0.00200547	0.00200547
   151	0.00200545	0.00200545
   152	0.00200547	0.00200547
   153	0.00200545	0.00200545
   154	0.00200549	0.00200549
   155	0.00200547	0.00200547
   156	0.00200547	0.00200547
   157	0.00200549	0.00200549
   158	0.00200545	0.00200545
   159	0.00200551	0.00200551
   160	0.00200551	0.00200551
   161	0.00200554	0.00200554
   162	0.00200549	0.00200549
   163	0.00200551	0.00200551
   164	0.00200554	0.00200554
   165	0.00200554	0.00200554
   166	0.00200557	0.00200557
   167	0.00200555	0.00200555
   168	0.00200553	0.00200553
   169	0.00200557	0.00200557
   170	0.00200565	0.00200565
   171	0.00200564	0.00200564
   172	0.0020056	0.0020056
   173	0.0020056	0.0020056
   174	0.00200566	0.00200566
   175	0.00200569	0.00200569
   176	0.00200563	0.00200563
   177	0.00200567	0.00200567
   178	0.00200575	0.00200575
   179	0.00200573	0.00200573
   180	0.00200576	0.00200576
   181	0.00200581	0.00200581
   182	0.00200541	0.00200541
   183	0.00200958	0.00200958
   184	0.00201066	0.00201066
   185	0.00201083	0.00201083

Measurement: t2
  step	time	at
     1	0.00200691	0.00200691
     2	0.00200686	0.00200686
     3	0.00200671	0.00200671
     4	0.00200689	0.00200689
     5	0.00200682	0.00200682
     6	0.00200685	0.00200685
     7	0.00200683	0.00200683
     8	0.0020069	0.0020069
     9	0.00200692	0.00200692
    10	0.0020068	0.0020068
    11	0.00200682	0.00200682
    12	0.00200695	0.00200695
    13	0.00200695	0.00200695
    14	0.00200684	0.00200684
    15	0.00200691	0.00200691
    16	0.00200681	0.00200681
    17	0.00200681	0.00200681
    18	0.00200679	0.00200679
    19	0.00200704	0.00200704
    20	0.00200695	0.00200695
    21	0.00200696	0.00200696
    22	0.00200686	0.00200686
    23	0.00200691	0.00200691
    24	0.00200694	0.00200694
    25	0.00200709	0.00200709
    26	0.00200698	0.00200698
    27	0.00200684	0.00200684
    28	0.00200691	0.00200691
    29	0.00200692	0.00200692
    30	0.00200736	0.00200736
    31	0.00200776	0.00200776
    32	0.00200783	0.00200783
    33	0.00200781	0.00200781
    34	0.00200817	0.00200817
    35	0.00200855	0.00200855
    36	0.00200841	0.00200841
    37	0.00200845	0.00200845
    38	0.00200775	0.00200775
    39	0.00200772	0.00200772
    40	0.00200778	0.00200778
    41	0.00200774	0.00200774
    42	0.00200782	0.00200782
    43	0.00200789	0.00200789
    44	0.00200776	0.00200776
    45	0.00200786	0.00200786
    46	0.00200796	0.00200796
    47	0.0020078	0.0020078
    48	0.00200777	0.00200777
    49	0.00200782	0.00200782
    50	0.00200791	0.00200791
    51	0.00200791	0.00200791
    52	0.00200789	0.00200789
    53	0.0020079	0.0020079
    54	0.00200789	0.00200789
    55	0.0020079	0.0020079
    56	0.00200789	0.00200789
    57	0.00200791	0.00200791
    58	0.00200784	0.00200784
    59	0.00200795	0.00200795
    60	0.0020079	0.0020079
    61	0.00200798	0.00200798
    62	0.00200803	0.00200803
    63	0.00200804	0.00200804
    64	0.00200797	0.00200797
    65	0.00200806	0.00200806
    66	0.00200802	0.00200802
    67	0.00200809	0.00200809
    68	0.00200786	0.00200786
    69	0.00200897	0.00200897
    70	0.00200939	0.00200939
    71	0.00200938	0.00200938
    72	0.00200954	0.00200954
    73	0.00200989	0.00200989
    74	0.00200986	0.00200986
    75	0.00201025	0.00201025
    76	0.0020103	0.0020103
    77	0.00201026	0.00201026
    78	0.00201029	0.00201029
    79	0.00201026	0.00201026
    80	0.00201029	0.00201029
    81	0.0020103	0.0020103
    82	0.0020103	0.0020103
    83	0.00201025	0.00201025
    84	0.00201034	0.00201034
    85	0.00201034	0.00201034
    86	0.00201032	0.00201032
    87	0.00201034	0.00201034
    88	0.00201034	0.00201034
    89	0.00201034	0.00201034
    90	0.00201028	0.00201028
    91	0.00201045	0.00201045
    92	0.00201029	0.00201029
    93	0.00201044	0.00201044
    94	0.00201037	0.00201037
    95	0.00201044	0.00201044
    96	0.00201039	0.00201039
    97	0.0020104	0.0020104
    98	0.00201045	0.00201045
    99	0.00201042	0.00201042
   100	0.0020105	0.0020105
   101	0.00201048	0.00201048
   102	0.0020105	0.0020105
   103	0.00201053	0.00201053
   104	0.00201052	0.00201052
   105	0.00201062	0.00201062
   106	0.00201062	0.00201062
   107	0.00200988	0.00200988
   108	0.0020125	0.0020125
   109	0.00201286	0.00201286
   110	0.00201355	0.00201355
   111	0.00201373	0.00201373
   112	0.00201946	0.00201946
   113	0.00201942	0.00201942
   114	0.00201946	0.00201946
   115	0.00201944	0.00201944
   116	0.00201947	0.00201947
   117	0.00201945	0.00201945
   118	0.00201948	0.00201948
   119	0.00201948	0.00201948
   120	0.00201957	0.00201957
   121	0.00201953	0.00201953
   122	0.00201944	0.00201944
   123	0.0020195	0.0020195
   124	0.0020195	0.0020195
   125	0.00201952	0.00201952
   126	0.0020195	0.0020195
   127	0.00201949	0.00201949
   128	0.00201958	0.00201958
   129	0.00201956	0.00201956
   130	0.00201958	0.00201958
   131	0.00201962	0.00201962
   132	0.00201958	0.00201958
   133	0.00201961	0.00201961
   134	0.00201965	0.00201965
   135	0.00201967	0.00201967
   136	0.00201963	0.00201963
   137	0.00201971	0.00201971
   138	0.00201966	0.00201966
   139	0.00201973	0.00201973
   140	0.00201976	0.00201976
   141	0.00201978	0.00201978
   142	0.00201973	0.00201973
   143	0.00201979	0.00201979
   144	0.00201981	0.00201981
   145	0.00202182	0.00202182
   146	0.00202257	0.00202257
   147	0.00202318	0.00202318
   148	0.00201231	0.00201231
   149	0.00202174	0.00202174
   150	0.00202182	0.00202182
   151	0.00202179	0.00202179
   152	0.00202182	0.00202182
   153	0.0020218	0.0020218
   154	0.00202183	0.00202183
   155	0.00202182	0.00202182
   156	0.00202181	0.00202181
   157	0.00202184	0.00202184
   158	0.00202179	0.00202179
   159	0.00202185	0.00202185
   160	0.00202186	0.00202186
   161	0.00202189	0.00202189
   162	0.00202184	0.00202184
   163	0.00202185	0.00202185
   164	0.00202188	0.00202188
   165	0.00202189	0.00202189
   166	0.00202191	0.00202191
   167	0.00202189	0.00202189
   168	0.00202188	0.00202188
   169	0.00202191	0.00202191
   170	0.002022	0.002022
   171	0.00202197	0.00202197
   172	0.00202194	0.00202194
   173	0.00202195	0.00202195
   174	0.00202202	0.00202202
   175	0.00202204	0.00202204
   176	0.00202197	0.00202197
   177	0.00202202	0.00202202
   178	0.00202209	0.00202209
   179	0.00202207	0.00202207
   180	0.00202209	0.00202209
   181	0.00202217	0.00202217
   182	0.00202255	0.00202255
   183	0.00202594	0.00202594
   184	0.002027	0.002027
   185	0.00202717	0.00202717

Measurement: p_sw
  step	AVG(v(n001,n004)*ix(u2:d))	FROM	TO
     1	4.45675	0.002	0.0025
     2	4.56168	0.002	0.0025
     3	4.61991	0.002	0.0025
     4	4.66924	0.002	0.0025
     5	4.73861	0.002	0.0025
     6	4.80648	0.002	0.0025
     7	4.8812	0.002	0.0025
     8	4.94942	0.002	0.0025
     9	5.07549	0.002	0.0025
    10	5.19145	0.002	0.0025
    11	5.29944	0.002	0.0025
    12	5.41333	0.002	0.0025
    13	5.56805	0.002	0.0025
    14	5.72128	0.002	0.0025
    15	5.86065	0.002	0.0025
    16	6.02378	0.002	0.0025
    17	6.1938	0.002	0.0025
    18	6.38689	0.002	0.0025
    19	6.59091	0.002	0.0025
    20	6.83021	0.002	0.0025
    21	7.08144	0.002	0.0025
    22	7.36351	0.002	0.0025
    23	7.66872	0.002	0.0025
    24	8.05898	0.002	0.0025
    25	8.53038	0.002	0.0025
    26	9.01733	0.002	0.0025
    27	9.60141	0.002	0.0025
    28	10.3119	0.002	0.0025
    29	11.3259	0.002	0.0025
    30	14.7988	0.002	0.0025
    31	60.7466	0.002	0.0025
    32	68.355	0.002	0.0025
    33	76.1472	0.002	0.0025
    34	82.0462	0.002	0.0025
    35	86.2247	0.002	0.0025
    36	83.9125	0.002	0.0025
    37	78.4906	0.002	0.0025
    38	3.41449	0.002	0.0025
    39	3.46892	0.002	0.0025
    40	3.5084	0.002	0.0025
    41	3.55526	0.002	0.0025
    42	3.60108	0.002	0.0025
    43	3.6449	0.002	0.0025
    44	3.67804	0.002	0.0025
    45	3.75407	0.002	0.0025
    46	3.8188	0.002	0.0025
    47	3.91662	0.002	0.0025
    48	3.97811	0.002	0.0025
    49	4.04885	0.002	0.0025
    50	4.14966	0.002	0.0025
    51	4.25824	0.002	0.0025
    52	4.37242	0.002	0.0025
    53	4.48035	0.002	0.0025
    54	4.60149	0.002	0.0025
    55	4.73151	0.002	0.0025
    56	4.86741	0.002	0.0025
    57	5.01609	0.002	0.0025
    58	5.18953	0.002	0.0025
    59	5.38252	0.002	0.0025
    60	5.5868	0.002	0.0025
    61	5.79806	0.002	0.0025
    62	6.12108	0.002	0.0025
    63	6.43163	0.002	0.0025
    64	6.80993	0.002	0.0025
    65	7.26276	0.002	0.0025
    66	7.76268	0.002	0.0025
    67	8.37909	0.002	0.0025
    68	9.08916	0.002	0.0025
    69	61.1379	0.002	0.0025
    70	71.2432	0.002	0.0025
    71	80.5377	0.002	0.0025
    72	87.2386	0.002	0.0025
    73	89.2482	0.002	0.0025
    74	83.3821	0.002	0.0025
    75	2.09062	0.002	0.0025
    76	2.10107	0.002	0.0025
    77	2.13121	0.002	0.0025
    78	2.15262	0.002	0.0025
    79	2.16209	0.002	0.0025
    80	2.20707	0.002	0.0025
    81	2.24005	0.002	0.0025
    82	2.26758	0.002	0.0025
    83	2.30508	0.002	0.0025
    84	2.32594	0.002	0.0025
    85	2.36563	0.002	0.0025
    86	2.40799	0.002	0.0025
    87	2.43787	0.002	0.0025
    88	2.49873	0.002	0.0025
    89	2.55076	0.002	0.0025
    90	2.61041	0.002	0.0025
    91	2.67749	0.002	0.0025
    92	2.74387	0.002	0.0025
    93	2.81497	0.002	0.0025
    94	2.88985	0.002	0.0025
    95	2.96557	0.002	0.0025
    96	3.05819	0.002	0.0025
    97	3.15519	0.002	0.0025
    98	3.26471	0.002	0.0025
    99	3.3921	0.002	0.0025
   100	3.53649	0.002	0.0025
   101	3.70063	0.002	0.0025
   102	3.8843	0.002	0.0025
   103	4.10184	0.002	0.0025
   104	4.3526	0.002	0.0025
   105	4.65459	0.002	0.0025
   106	4.99733	0.002	0.0025
   107	5.46189	0.002	0.0025
   108	67.6685	0.002	0.0025
   109	83.499	0.002	0.0025
   110	92.4841	0.002	0.0025
   111	90.1323	0.002	0.0025
   112	1.73575	0.002	0.0025
   113	1.74947	0.002	0.0025
   114	1.78139	0.002	0.0025
   115	1.79273	0.002	0.0025
   116	1.81356	0.002	0.0025
   117	1.83758	0.002	0.0025
   118	1.85527	0.002	0.0025
   119	1.87434	0.002	0.0025
   120	1.90788	0.002	0.0025
   121	1.9274	0.002	0.0025
   122	1.96288	0.002	0.0025
   123	1.99003	0.002	0.0025
   124	2.03307	0.002	0.0025
   125	2.05723	0.002	0.0025
   126	2.0973	0.002	0.0025
   127	2.14218	0.002	0.0025
   128	2.19377	0.002	0.0025
   129	2.24806	0.002	0.0025
   130	2.30178	0.002	0.0025
   131	2.3598	0.002	0.0025
   132	2.41938	0.002	0.0025
   133	2.48417	0.002	0.0025
   134	2.55998	0.002	0.0025
   135	2.64277	0.002	0.0025
   136	2.73413	0.002	0.0025
   137	2.82228	0.002	0.0025
   138	2.9626	0.002	0.0025
   139	3.09973	0.002	0.0025
   140	3.25342	0.002	0.0025
   141	3.43433	0.002	0.0025
   142	3.64169	0.002	0.0025
   143	3.89468	0.002	0.0025
   144	4.17989	0.002	0.0025
   145	57.8298	0.002	0.0025
   146	80.6363	0.002	0.0025
   147	93.0165	0.002	0.0025
   148	92.3507	0.002	0.0025
   149	1.29391	0.002	0.0025
   150	1.30699	0.002	0.0025
   151	1.31963	0.002	0.0025
   152	1.31881	0.002	0.0025
   153	1.34118	0.002	0.0025
   154	1.3537	0.002	0.0025
   155	1.36952	0.002	0.0025
   156	1.38631	0.002	0.0025
   157	1.39484	0.002	0.0025
   158	1.41472	0.002	0.0025
   159	1.42672	0.002	0.0025
   160	1.45625	0.002	0.0025
   161	1.47885	0.002	0.0025
   162	1.49734	0.002	0.0025
   163	1.52384	0.002	0.0025
   164	1.54926	0.002	0.0025
   165	1.57529	0.002	0.0025
   166	1.61638	0.002	0.0025
   167	1.64846	0.002	0.0025
   168	1.68663	0.002	0.0025
   169	1.72412	0.002	0.0025
   170	1.76453	0.002	0.0025
   171	1.80956	0.002	0.0025
   172	1.85988	0.002	0.0025
   173	1.91674	0.002	0.0025
   174	1.98008	0.002	0.0025
   175	2.0382	0.002	0.0025
   176	2.13254	0.002	0.0025
   177	2.22393	0.002	0.0025
   178	2.32357	0.002	0.0025
   179	2.44114	0.002	0.0025
   180	2.58184	0.002	0.0025
   181	2.74504	0.002	0.0025
   182	2.92174	0.002	0.0025
   183	89.2334	0.002	0.0025
   184	99.2281	0.002	0.0025
   185	95.1245	0.002	0.0025

Measurement: t_set
  step	time	at
     1	0.000639039	0.000639039
     2	0.000639423	0.000639423
     3	0.000643273	0.000643273
     4	0.000643744	0.000643744
     5	0.000644292	0.000644292
     6	0.000648348	0.000648348
     7	0.000648995	0.000648995
     8	0.000653223	0.000653223
     9	0.000654027	0.000654027
    10	0.000658478	0.000658478
    11	0.00066309	0.00066309
    12	0.000667838	0.000667838
    13	0.000672729	0.000672729
    14	0.000677791	0.000677791
    15	0.00068294	0.00068294
    16	0.000688203	0.000688203
    17	0.000697335	0.000697335
    18	0.000702905	0.000702905
    19	0.000712315	0.000712315
    20	0.000721903	0.000721903
    21	0.00073186	0.00073186
    22	0.000742089	0.000742089
    23	0.000756638	0.000756638
    24	0.000771858	0.000771858
    25	0.000791919	0.000791919
    26	0.000821177	0.000821177
    27	0.00086482	0.00086482
    28	0.000924242	0.000924242
    29	0.00102686	0.00102686
    30	0.00120366	0.00120366
    31	0.00159161	0.00159161
    32	0	0
    33	0	0
    34	0	0
    35	0	0
    36	0	0
    37	0	0
    38	0.000633785	0.000633785
    39	0.000634096	0.000634096
    40	0.000634427	0.000634427
    41	0.000634759	0.000634759
    42	0.000635192	0.000635192
    43	0.000640087	0.000640087
    44	0.000640555	0.000640555
    45	0.000641126	0.000641126
    46	0.00064625	0.00064625
    47	0.000646972	0.000646972
    48	0.000647813	0.000647813
    49	0.000653291	0.000653291
    50	0.000658963	0.000658963
    51	0.000660279	0.000660279
    52	0.000666259	0.000666259
    53	0.000672335	0.000672335
    54	0.000678568	0.000678568
    55	0.000684872	0.000684872
    56	0.000691271	0.000691271
    57	0.000697875	0.000697875
    58	0.000704598	0.000704598
    59	0.000716307	0.000716307
    60	0.000723608	0.000723608
    61	0.000736184	0.000736184
    62	0.00074938	0.00074938
    63	0.000768437	0.000768437
    64	0.000799106	0.000799106
    65	0.000837385	0.000837385
    66	0.000900733	0.000900733
    67	0.00100286	0.00100286
    68	0.00119944	0.00119944
    69	0.00167451	0.00167451
    70	0	0
    71	0	0
    72	0	0
    73	0	0
    74	0	0
    75	0.000632084	0.000632084
    76	0.000632288	0.000632288
    77	0.00063245	0.00063245
    78	0.000632661	0.000632661
    79	0.000632884	0.000632884
    80	0.000633147	0.000633147
    81	0.000633453	0.000633453
    82	0.000633786	0.000633786
    83	0.000634176	0.000634176
    84	0.000634673	0.000634673
    85	0.00063526	0.00063526
    86	0.000642942	0.000642942
    87	0.00064374	0.00064374
    88	0.000644762	0.000644762
    89	0.000653064	0.000653064
    90	0.000654404	0.000654404
    91	0.000663036	0.000663036
    92	0.0006644	0.0006644
    93	0.00067319	0.00067319
    94	0.000674703	0.000674703
    95	0.000683605	0.000683605
    96	0.000685341	0.000685341
    97	0.000694549	0.000694549
    98	0.000704035	0.000704035
    99	0.000706345	0.000706345
   100	0.000716533	0.000716533
   101	0.00073497	0.00073497
   102	0.000746995	0.000746995
   103	0.000776626	0.000776626
   104	0.000818573	0.000818573
   105	0.000900577	0.000900577
   106	0.00106386	0.00106386
   107	0.00143168	0.00143168
   108	0	0
   109	0	0
   110	0	0
   111	0	0
   112	0.000626208	0.000626208
   113	0.000626368	0.000626368
   114	0.000626546	0.000626546
   115	0.000626753	0.000626753
   116	0.000626979	0.000626979
   117	0.000635553	0.000635553
   118	0.000635815	0.000635815
   119	0.000636078	0.000636078
   120	0.000636413	0.000636413
   121	0.000636773	0.000636773
   122	0.000637232	0.000637232
   123	0.000637776	0.000637776
   124	0.000638509	0.000638509
   125	0.000647898	0.000647898
   126	0.000648963	0.000648963
   127	0.000650267	0.000650267
   128	0.000660217	0.000660217
   129	0.000661514	0.000661514
   130	0.000662948	0.000662948
   131	0.000673031	0.000673031
   132	0.00067456	0.00067456
   133	0.000684843	0.000684843
   134	0.000686521	0.000686521
   135	0.000697178	0.000697178
   136	0.000699252	0.000699252
   137	0.000710365	0.000710365
   138	0.000722046	0.000722046
   139	0.000734562	0.000734562
   140	0.000748444	0.000748444
   141	0.000783873	0.000783873
   142	0.000835238	0.000835238
   143	0.000957066	0.000957066
   144	0.00120316	0.00120316
   145	0.00195088	0.00195088
   146	0	0
   147	0	0
   148	0	0
   149	0.00063501	0.00063501
   150	0.000635143	0.000635143
   151	0.000635262	0.000635262
   152	0.00063538	0.00063538
   153	0.000635532	0.000635532
   154	0.000635642	0.000635642
   155	0.000635831	0.000635831
   156	0.000636031	0.000636031
   157	0.000636232	0.000636232
   158	0.000636536	0.000636536
   159	0.000636864	0.000636864
   160	0.0006373	0.0006373
   161	0.000637885	0.000637885
   162	0.000638708	0.000638708
   163	0.00065101	0.00065101
   164	0.000652109	0.000652109
   165	0.000653269	0.000653269
   166	0.000654624	0.000654624
   167	0.000667323	0.000667323
   168	0.000668833	0.000668833
   169	0.000670237	0.000670237
   170	0.000671867	0.000671867
   171	0.000684631	0.000684631
   172	0.000686276	0.000686276
   173	0.000688263	0.000688263
   174	0.000701495	0.000701495
   175	0.000703595	0.000703595
   176	0.000717634	0.000717634
   177	0.00072079	0.00072079
   178	0.000737012	0.000737012
   179	0.000769037	0.000769037
   180	0.000835103	0.000835103
   181	0.00101237	0.00101237
   182	0.0015218	0.0015218
   183	0	0
   184	0	0
   185	0	0

Measurement: tduty
  step	tduty	FROM	TO
     1	1.9035e-006	0.00200203	0.00200393
     2	1.90172e-006	0.00200198	0.00200388
     3	1.88797e-006	0.00200183	0.00200372
     4	1.88455e-006	0.00200201	0.0020039
     5	1.87647e-006	0.00200195	0.00200382
     6	1.87066e-006	0.00200197	0.00200384
     7	1.86541e-006	0.00200194	0.00200381
     8	1.85872e-006	0.00200202	0.00200388
     9	1.8486e-006	0.00200203	0.00200388
    10	1.83756e-006	0.00200192	0.00200376
    11	1.83459e-006	0.00200194	0.00200378
    12	1.82356e-006	0.00200207	0.00200389
    13	1.81447e-006	0.00200207	0.00200388
    14	1.80962e-006	0.00200196	0.00200377
    15	1.79928e-006	0.00200203	0.00200383
    16	1.79641e-006	0.00200194	0.00200373
    17	1.78308e-006	0.00200192	0.0020037
    18	1.71768e-006	0.00200196	0.00200368
    19	1.6751e-006	0.00200224	0.00200392
    20	1.65727e-006	0.00200213	0.00200379
    21	1.64701e-006	0.00200215	0.0020038
    22	1.65393e-006	0.00200204	0.0020037
    23	1.65623e-006	0.0020021	0.00200375
    24	1.62771e-006	0.00200214	0.00200376
    25	1.56072e-006	0.00200229	0.00200385
    26	1.57874e-006	0.00200216	0.00200373
    27	1.5666e-006	0.00200203	0.00200359
    28	1.58862e-006	0.00200208	0.00200367
    29	1.51973e-006	0.00200208	0.0020036
    30	1.10904e-006	0.00200256	0.00200367
    31	7.90966e-007	0.00200293	0.00200372
    32	7.16207e-007	0.00200299	0.0020037
    33	6.22672e-007	0.00200296	0.00200358
    34	5.22531e-007	0.0020033	0.00200383
    35	3.9933e-007	0.00200368	0.00200408
    36	3.58138e-007	0.00200354	0.0020039
    37	3.59248e-007	0.00200357	0.00200393
    38	2.50398e-006	0.00200144	0.00200395
    39	2.49462e-006	0.00200141	0.00200391
    40	2.49281e-006	0.00200147	0.00200397
    41	2.48142e-006	0.00200144	0.00200392
    42	2.47587e-006	0.00200151	0.00200398
    43	2.47038e-006	0.00200158	0.00200405
    44	2.46089e-006	0.00200145	0.00200391
    45	2.45411e-006	0.00200156	0.00200401
    46	2.44629e-006	0.00200165	0.0020041
    47	2.43615e-006	0.0020015	0.00200393
    48	2.4354e-006	0.00200146	0.00200389
    49	2.42145e-006	0.00200152	0.00200394
    50	2.41141e-006	0.0020016	0.00200401
    51	2.41022e-006	0.0020016	0.00200401
    52	2.3988e-006	0.00200158	0.00200398
    53	2.39191e-006	0.00200159	0.00200398
    54	2.37356e-006	0.00200158	0.00200396
    55	2.32344e-006	0.00200163	0.00200396
    56	2.28619e-006	0.00200166	0.00200394
    57	2.27067e-006	0.00200168	0.00200395
    58	2.26821e-006	0.00200161	0.00200387
    59	2.24996e-006	0.00200171	0.00200396
    60	2.23444e-006	0.00200167	0.0020039
    61	2.20612e-006	0.00200174	0.00200395
    62	2.19262e-006	0.00200179	0.00200398
    63	2.20105e-006	0.0020018	0.002004
    64	2.16922e-006	0.00200173	0.0020039
    65	2.1179e-006	0.00200181	0.00200393
    66	2.11981e-006	0.00200179	0.00200391
    67	2.12178e-006	0.00200187	0.00200399
    68	2.33571e-006	0.00200156	0.00200389
    69	1.09696e-006	0.00200272	0.00200382
    70	9.68809e-007	0.00200312	0.00200409
    71	8.16671e-007	0.0020031	0.00200391
    72	6.32522e-007	0.00200324	0.00200388
    73	4.75851e-007	0.00200359	0.00200406
    74	4.77194e-007	0.00200355	0.00200403
    75	4.12622e-006	0.00200006	0.00200418
    76	4.11913e-006	0.00200011	0.00200423
    77	4.11001e-006	0.00200007	0.00200418
    78	4.10799e-006	0.00200009	0.0020042
    79	4.10008e-006	0.00200006	0.00200416
    80	4.09068e-006	0.0020001	0.00200419
    81	4.08125e-006	0.00200011	0.00200419
    82	4.07967e-006	0.00200011	0.00200419
    83	4.07728e-006	0.00200006	0.00200414
    84	4.06423e-006	0.00200015	0.00200421
    85	4.04848e-006	0.00200016	0.00200421
    86	4.04811e-006	0.00200013	0.00200418
    87	4.04007e-006	0.00200015	0.00200419
    88	4.02671e-006	0.00200015	0.00200418
    89	4.02961e-006	0.00200013	0.00200416
    90	4.01394e-006	0.0020001	0.00200412
    91	4.00276e-006	0.00200026	0.00200427
    92	3.94631e-006	0.00200014	0.00200409
    93	3.91118e-006	0.00200032	0.00200423
    94	3.89998e-006	0.00200025	0.00200415
    95	3.88298e-006	0.00200032	0.0020042
    96	3.88028e-006	0.00200027	0.00200415
    97	3.8615e-006	0.00200028	0.00200415
    98	3.84531e-006	0.00200033	0.00200417
    99	3.83135e-006	0.0020003	0.00200413
   100	3.82123e-006	0.00200038	0.0020042
   101	3.80703e-006	0.00200036	0.00200417
   102	3.79244e-006	0.00200038	0.00200417
   103	3.75403e-006	0.00200041	0.00200416
   104	3.74766e-006	0.00200039	0.00200414
   105	3.69441e-006	0.00200049	0.00200418
   106	3.74944e-006	0.00200048	0.00200423
   107	4.08396e-006	0.00200011	0.0020042
   108	1.84329e-006	0.00200232	0.00200417
   109	1.41797e-006	0.00200268	0.00200409
   110	9.50731e-007	0.00200335	0.0020043
   111	7.93759e-007	0.00200354	0.00200433
   112	4.97662e-006	0.00200723	0.00201221
   113	4.97303e-006	0.00200719	0.00201216
   114	4.9631e-006	0.00200722	0.00201219
   115	4.95634e-006	0.00200721	0.00201216
   116	4.95361e-006	0.00200724	0.00201219
   117	4.9484e-006	0.00200721	0.00201216
   118	4.93179e-006	0.00200725	0.00201219
   119	4.92843e-006	0.00200725	0.00201218
   120	4.92344e-006	0.00200734	0.00201226
   121	4.91496e-006	0.00200729	0.00201221
   122	4.91283e-006	0.0020072	0.00201212
   123	4.89826e-006	0.00200727	0.00201217
   124	4.89497e-006	0.00200727	0.00201217
   125	4.88857e-006	0.00200729	0.00201218
   126	4.87351e-006	0.00200727	0.00201214
   127	4.87301e-006	0.00200725	0.00201212
   128	4.85943e-006	0.00200735	0.00201221
   129	4.7908e-006	0.00200739	0.00201218
   130	4.77397e-006	0.00200742	0.00201219
   131	4.75607e-006	0.00200745	0.00201221
   132	4.74931e-006	0.00200742	0.00201217
   133	4.73526e-006	0.00200745	0.00201219
   134	4.71727e-006	0.00200748	0.0020122
   135	4.70903e-006	0.00200751	0.00201222
   136	4.69456e-006	0.00200746	0.00201216
   137	4.67079e-006	0.00200755	0.00201222
   138	4.65772e-006	0.0020075	0.00201215
   139	4.63962e-006	0.00200757	0.00201221
   140	4.62528e-006	0.0020076	0.00201222
   141	4.60304e-006	0.00200761	0.00201221
   142	4.57712e-006	0.00200755	0.00201213
   143	4.53673e-006	0.00200761	0.00201215
   144	4.62779e-006	0.00200757	0.0020122
   145	2.52307e-006	0.00200961	0.00201213
   146	1.89679e-006	0.00201034	0.00201224
   147	1.24756e-006	0.00201094	0.00201219
   148	-1.12993e-005	0.00201135	0.00200005
   149	6.68811e-006	0.00200541	0.0020121
   150	6.6888e-006	0.0020055	0.00201219
   151	6.67141e-006	0.00200548	0.00201215
   152	6.66489e-006	0.0020055	0.00201217
   153	6.65549e-006	0.00200548	0.00201214
   154	6.64186e-006	0.00200551	0.00201216
   155	6.64348e-006	0.0020055	0.00201215
   156	6.63839e-006	0.00200549	0.00201213
   157	6.63621e-006	0.00200551	0.00201215
   158	6.62849e-006	0.00200548	0.00201211
   159	6.61422e-006	0.00200554	0.00201215
   160	6.6114e-006	0.00200554	0.00201215
   161	6.59654e-006	0.00200557	0.00201216
   162	6.59843e-006	0.00200552	0.00201211
   163	6.58438e-006	0.00200554	0.00201212
   164	6.57356e-006	0.00200557	0.00201214
   165	6.51528e-006	0.00200561	0.00201213
   166	6.47176e-006	0.00200567	0.00201214
   167	6.46939e-006	0.00200565	0.00201212
   168	6.46065e-006	0.00200563	0.00201209
   169	6.45522e-006	0.00200566	0.00201212
   170	6.44423e-006	0.00200575	0.00201219
   171	6.41923e-006	0.00200573	0.00201215
   172	6.41684e-006	0.00200569	0.00201211
   173	6.41376e-006	0.0020057	0.00201211
   174	6.39665e-006	0.00200575	0.00201215
   175	6.38211e-006	0.00200579	0.00201217
   176	6.36165e-006	0.00200572	0.00201208
   177	6.34404e-006	0.00200577	0.00201211
   178	6.31341e-006	0.00200584	0.00201215
   179	6.29136e-006	0.00200582	0.00201211
   180	6.27132e-006	0.00200585	0.00201212
   181	6.22213e-006	0.0020059	0.00201212
   182	6.68604e-006	0.0020055	0.00201218
   183	2.4936e-006	0.0020096	0.00201209
   184	1.49522e-006	0.00201068	0.00201217
   185	1.29002e-006	0.00201085	0.00201214

Measurement: duty_ratio
  step	1-(tduty/t_period)
     1	0.612245
     2	0.612783
     3	0.615089
     4	0.615932
     5	0.617452
     6	0.618801
     7	0.620429
     8	0.621365
     9	0.623543
    10	0.625332
    11	0.6264
    12	0.6284
    13	0.63033
    14	0.631364
    15	0.633156
    16	0.633817
    17	0.637478
    18	0.649864
    19	0.658246
    20	0.662739
    21	0.664287
    22	0.663306
    23	0.662689
    24	0.667752
    25	0.681651
    26	0.678944
    27	0.680608
    28	0.677425
    29	0.692102
    30	0.773454
    31	0.839082
    32	0.854235
    33	0.873088
    34	0.89355
    35	0.918536
    36	0.926984
    37	0.926803
    38	0.604621
    39	0.606219
    40	0.606704
    41	0.608109
    42	0.60919
    43	0.61011
    44	0.61202
    45	0.61254
    46	0.613794
    47	0.615436
    48	0.615788
    49	0.617507
    50	0.619458
    51	0.619758
    52	0.621563
    53	0.622792
    54	0.625242
    55	0.633364
    56	0.639089
    57	0.641272
    58	0.642046
    59	0.645014
    60	0.647133
    61	0.651603
    62	0.6541
    63	0.652741
    64	0.657436
    65	0.666082
    66	0.66469
    67	0.664144
    68	0.63472
    69	0.826775
    70	0.846917
    71	0.871073
    72	0.900162
    73	0.924872
    74	0.924691
    75	0.596211
    76	0.596762
    77	0.597556
    78	0.598048
    79	0.598817
    80	0.599635
    81	0.600461
    82	0.600809
    83	0.601106
    84	0.602231
    85	0.60344
    86	0.60381
    87	0.604598
    88	0.605885
    89	0.606055
    90	0.606905
    91	0.608171
    92	0.614113
    93	0.617259
    94	0.618382
    95	0.619774
    96	0.620391
    97	0.621933
    98	0.623554
    99	0.624818
   100	0.625921
   101	0.627438
   102	0.628806
   103	0.632423
   104	0.633416
   105	0.638506
   106	0.633312
   107	0.585787
   108	0.819702
   109	0.861229
   110	0.906983
   111	0.922319
   112	0.594016
   113	0.594525
   114	0.595251
   115	0.595578
   116	0.596061
   117	0.596504
   118	0.597479
   119	0.598014
   120	0.598449
   121	0.599222
   122	0.599414
   123	0.600459
   124	0.600771
   125	0.601265
   126	0.602461
   127	0.602599
   128	0.603601
   129	0.609205
   130	0.610834
   131	0.612168
   132	0.612561
   133	0.613695
   134	0.615255
   135	0.61576
   136	0.616968
   137	0.618859
   138	0.620092
   139	0.621394
   140	0.622729
   141	0.624498
   142	0.626859
   143	0.630366
   144	0.624758
   145	0.79417
   146	0.845246
   147	0.898259
   148	1.92177
   149	0.590955
   150	0.590907
   151	0.591704
   152	0.592313
   153	0.592846
   154	0.593533
   155	0.593495
   156	0.593825
   157	0.594144
   158	0.594418
   159	0.595195
   160	0.595499
   161	0.596433
   162	0.59639
   163	0.597148
   164	0.597703
   165	0.601319
   166	0.603912
   167	0.604124
   168	0.604733
   169	0.605103
   170	0.605754
   171	0.607121
   172	0.60739
   173	0.607671
   174	0.608903
   175	0.609566
   176	0.610715
   177	0.61179
   178	0.613535
   179	0.615064
   180	0.61598
   181	0.619786
   182	0.609929
   183	0.847648
   184	0.908504
   185	0.921083

Measurement: voutpp
  step	PP(v(out))	FROM	TO
     1	0.0783424	0.002	0.0025
     2	0.0778084	0.002	0.0025
     3	0.0783691	0.002	0.0025
     4	0.0793152	0.002	0.0025
     5	0.078228	0.002	0.0025
     6	0.0798264	0.002	0.0025
     7	0.0797195	0.002	0.0025
     8	0.0775185	0.002	0.0025
     9	0.0796738	0.002	0.0025
    10	0.079464	0.002	0.0025
    11	0.0793953	0.002	0.0025
    12	0.0785675	0.002	0.0025
    13	0.0795822	0.002	0.0025
    14	0.0806503	0.002	0.0025
    15	0.0821571	0.002	0.0025
    16	0.0839882	0.002	0.0025
    17	0.0842361	0.002	0.0025
    18	0.0855064	0.002	0.0025
    19	0.0880547	0.002	0.0025
    20	0.0902596	0.002	0.0025
    21	0.0929489	0.002	0.0025
    22	0.0972252	0.002	0.0025
    23	0.108219	0.002	0.0025
    24	0.112186	0.002	0.0025
    25	0.130894	0.002	0.0025
    26	0.140015	0.002	0.0025
    27	0.174992	0.002	0.0025
    28	0.239937	0.002	0.0025
    29	0.358524	0.002	0.0025
    30	0.817436	0.002	0.0025
    31	1.01929	0.002	0.0025
    32	0.839653	0.002	0.0025
    33	0.643417	0.002	0.0025
    34	0.375483	0.002	0.0025
    35	0.126995	0.002	0.0025
    36	0.400063	0.002	0.0025
    37	0.53068	0.002	0.0025
    38	0.0988922	0.002	0.0025
    39	0.0981102	0.002	0.0025
    40	0.0978203	0.002	0.0025
    41	0.0983391	0.002	0.0025
    42	0.0978737	0.002	0.0025
    43	0.0977745	0.002	0.0025
    44	0.0986404	0.002	0.0025
    45	0.0980835	0.002	0.0025
    46	0.099575	0.002	0.0025
    47	0.100628	0.002	0.0025
    48	0.0984497	0.002	0.0025
    49	0.0992432	0.002	0.0025
    50	0.0987053	0.002	0.0025
    51	0.100285	0.002	0.0025
    52	0.0992889	0.002	0.0025
    53	0.100861	0.002	0.0025
    54	0.0998192	0.002	0.0025
    55	0.101067	0.002	0.0025
    56	0.101799	0.002	0.0025
    57	0.10075	0.002	0.0025
    58	0.101177	0.002	0.0025
    59	0.103931	0.002	0.0025
    60	0.105423	0.002	0.0025
    61	0.108986	0.002	0.0025
    62	0.108772	0.002	0.0025
    63	0.116734	0.002	0.0025
    64	0.115143	0.002	0.0025
    65	0.129093	0.002	0.0025
    66	0.148224	0.002	0.0025
    67	0.200703	0.002	0.0025
    68	0.453003	0.002	0.0025
    69	1.18067	0.002	0.0025
    70	0.971516	0.002	0.0025
    71	0.630314	0.002	0.0025
    72	0.126122	0.002	0.0025
    73	0.579023	0.002	0.0025
    74	0.709206	0.002	0.0025
    75	0.153885	0.002	0.0025
    76	0.155197	0.002	0.0025
    77	0.154903	0.002	0.0025
    78	0.154987	0.002	0.0025
    79	0.154564	0.002	0.0025
    80	0.15443	0.002	0.0025
    81	0.154926	0.002	0.0025
    82	0.155468	0.002	0.0025
    83	0.154739	0.002	0.0025
    84	0.155254	0.002	0.0025
    85	0.155125	0.002	0.0025
    86	0.154903	0.002	0.0025
    87	0.154598	0.002	0.0025
    88	0.155247	0.002	0.0025
    89	0.155464	0.002	0.0025
    90	0.156273	0.002	0.0025
    91	0.155293	0.002	0.0025
    92	0.155151	0.002	0.0025
    93	0.155243	0.002	0.0025
    94	0.15588	0.002	0.0025
    95	0.155762	0.002	0.0025
    96	0.156178	0.002	0.0025
    97	0.157093	0.002	0.0025
    98	0.1558	0.002	0.0025
    99	0.157524	0.002	0.0025
   100	0.158169	0.002	0.0025
   101	0.158386	0.002	0.0025
   102	0.158836	0.002	0.0025
   103	0.159592	0.002	0.0025
   104	0.163353	0.002	0.0025
   105	0.168095	0.002	0.0025
   106	0.19643	0.002	0.0025
   107	0.616623	0.002	0.0025
   108	1.54832	0.002	0.0025
   109	0.684765	0.002	0.0025
   110	0.645466	0.002	0.0025
   111	1.00669	0.002	0.0025
   112	0.184784	0.002	0.0025
   113	0.184048	0.002	0.0025
   114	0.184471	0.002	0.0025
   115	0.184147	0.002	0.0025
   116	0.184837	0.002	0.0025
   117	0.184856	0.002	0.0025
   118	0.184639	0.002	0.0025
   119	0.184948	0.002	0.0025
   120	0.184166	0.002	0.0025
   121	0.185474	0.002	0.0025
   122	0.184994	0.002	0.0025
   123	0.184814	0.002	0.0025
   124	0.184769	0.002	0.0025
   125	0.18528	0.002	0.0025
   126	0.184223	0.002	0.0025
   127	0.184937	0.002	0.0025
   128	0.185013	0.002	0.0025
   129	0.185234	0.002	0.0025
   130	0.186489	0.002	0.0025
   131	0.185585	0.002	0.0025
   132	0.185589	0.002	0.0025
   133	0.185764	0.002	0.0025
   134	0.185966	0.002	0.0025
   135	0.186234	0.002	0.0025
   136	0.18647	0.002	0.0025
   137	0.187412	0.002	0.0025
   138	0.187473	0.002	0.0025
   139	0.186935	0.002	0.0025
   140	0.188736	0.002	0.0025
   141	0.188084	0.002	0.0025
   142	0.190937	0.002	0.0025
   143	0.199409	0.002	0.0025
   144	0.263535	0.002	0.0025
   145	2.10024	0.002	0.0025
   146	1.05052	0.002	0.0025
   147	0.620813	0.002	0.0025
   148	1.10985	0.002	0.0025
   149	0.243332	0.002	0.0025
   150	0.244778	0.002	0.0025
   151	0.243813	0.002	0.0025
   152	0.24329	0.002	0.0025
   153	0.243847	0.002	0.0025
   154	0.24369	0.002	0.0025
   155	0.243999	0.002	0.0025
   156	0.243698	0.002	0.0025
   157	0.244282	0.002	0.0025
   158	0.244553	0.002	0.0025
   159	0.244762	0.002	0.0025
   160	0.244492	0.002	0.0025
   161	0.244598	0.002	0.0025
   162	0.245171	0.002	0.0025
   163	0.244274	0.002	0.0025
   164	0.244907	0.002	0.0025
   165	0.244835	0.002	0.0025
   166	0.245281	0.002	0.0025
   167	0.244404	0.002	0.0025
   168	0.244877	0.002	0.0025
   169	0.245289	0.002	0.0025
   170	0.245338	0.002	0.0025
   171	0.245476	0.002	0.0025
   172	0.246357	0.002	0.0025
   173	0.245605	0.002	0.0025
   174	0.246754	0.002	0.0025
   175	0.247051	0.002	0.0025
   176	0.247253	0.002	0.0025
   177	0.247089	0.002	0.0025
   178	0.247181	0.002	0.0025
   179	0.247513	0.002	0.0025
   180	0.251286	0.002	0.0025
   181	0.258873	0.002	0.0025
   182	0.526176	0.002	0.0025
   183	0.862362	0.002	0.0025
   184	0.894665	0.002	0.0025
   185	1.21446	0.002	0.0025

Measurement: vout_avg
  step	AVG(v(out))	FROM	TO
     1	42.0852	0.002	0.0025
     2	42.0851	0.002	0.0025
     3	42.085	0.002	0.0025
     4	42.085	0.002	0.0025
     5	42.085	0.002	0.0025
     6	42.0849	0.002	0.0025
     7	42.0849	0.002	0.0025
     8	42.0849	0.002	0.0025
     9	42.0848	0.002	0.0025
    10	42.0848	0.002	0.0025
    11	42.0847	0.002	0.0025
    12	42.0847	0.002	0.0025
    13	42.0847	0.002	0.0025
    14	42.0847	0.002	0.0025
    15	42.0848	0.002	0.0025
    16	42.0848	0.002	0.0025
    17	42.0848	0.002	0.0025
    18	42.0847	0.002	0.0025
    19	42.0844	0.002	0.0025
    20	42.0841	0.002	0.0025
    21	42.0837	0.002	0.0025
    22	42.0837	0.002	0.0025
    23	42.0844	0.002	0.0025
    24	42.0854	0.002	0.0025
    25	42.0835	0.002	0.0025
    26	42.0814	0.002	0.0025
    27	42.0881	0.002	0.0025
    28	42.0804	0.002	0.0025
    29	42.0746	0.002	0.0025
    30	42.0775	0.002	0.0025
    31	41.7425	0.002	0.0025
    32	38.6956	0.002	0.0025
    33	35.2755	0.002	0.0025
    34	31.5977	0.002	0.0025
    35	27.7438	0.002	0.0025
    36	25.7903	0.002	0.0025
    37	24.801	0.002	0.0025
    38	42.0852	0.002	0.0025
    39	42.0851	0.002	0.0025
    40	42.0851	0.002	0.0025
    41	42.0851	0.002	0.0025
    42	42.085	0.002	0.0025
    43	42.085	0.002	0.0025
    44	42.0851	0.002	0.0025
    45	42.085	0.002	0.0025
    46	42.085	0.002	0.0025
    47	42.085	0.002	0.0025
    48	42.0849	0.002	0.0025
    49	42.085	0.002	0.0025
    50	42.0848	0.002	0.0025
    51	42.0848	0.002	0.0025
    52	42.0848	0.002	0.0025
    53	42.0847	0.002	0.0025
    54	42.0847	0.002	0.0025
    55	42.0846	0.002	0.0025
    56	42.0846	0.002	0.0025
    57	42.0847	0.002	0.0025
    58	42.0846	0.002	0.0025
    59	42.0847	0.002	0.0025
    60	42.0845	0.002	0.0025
    61	42.0842	0.002	0.0025
    62	42.0838	0.002	0.0025
    63	42.0843	0.002	0.0025
    64	42.0847	0.002	0.0025
    65	42.0828	0.002	0.0025
    66	42.0858	0.002	0.0025
    67	42.0885	0.002	0.0025
    68	42.0866	0.002	0.0025
    69	41.6299	0.002	0.0025
    70	37.7156	0.002	0.0025
    71	33.3174	0.002	0.0025
    72	28.6421	0.002	0.0025
    73	24.878	0.002	0.0025
    74	23.9164	0.002	0.0025
    75	42.085	0.002	0.0025
    76	42.085	0.002	0.0025
    77	42.085	0.002	0.0025
    78	42.0849	0.002	0.0025
    79	42.0849	0.002	0.0025
    80	42.0849	0.002	0.0025
    81	42.0849	0.002	0.0025
    82	42.0848	0.002	0.0025
    83	42.0849	0.002	0.0025
    84	42.0848	0.002	0.0025
    85	42.0849	0.002	0.0025
    86	42.0848	0.002	0.0025
    87	42.0848	0.002	0.0025
    88	42.0848	0.002	0.0025
    89	42.0849	0.002	0.0025
    90	42.0848	0.002	0.0025
    91	42.0847	0.002	0.0025
    92	42.0847	0.002	0.0025
    93	42.0847	0.002	0.0025
    94	42.0848	0.002	0.0025
    95	42.0847	0.002	0.0025
    96	42.0846	0.002	0.0025
    97	42.0846	0.002	0.0025
    98	42.0846	0.002	0.0025
    99	42.0845	0.002	0.0025
   100	42.0846	0.002	0.0025
   101	42.0845	0.002	0.0025
   102	42.0845	0.002	0.0025
   103	42.0842	0.002	0.0025
   104	42.0842	0.002	0.0025
   105	42.0837	0.002	0.0025
   106	42.0848	0.002	0.0025
   107	42.1049	0.002	0.0025
   108	38.3216	0.002	0.0025
   109	31.6952	0.002	0.0025
   110	25.2679	0.002	0.0025
   111	22.4984	0.002	0.0025
   112	42.0845	0.002	0.0025
   113	42.0844	0.002	0.0025
   114	42.0844	0.002	0.0025
   115	42.0844	0.002	0.0025
   116	42.0843	0.002	0.0025
   117	42.0844	0.002	0.0025
   118	42.0844	0.002	0.0025
   119	42.0843	0.002	0.0025
   120	42.0844	0.002	0.0025
   121	42.0843	0.002	0.0025
   122	42.0843	0.002	0.0025
   123	42.0843	0.002	0.0025
   124	42.0843	0.002	0.0025
   125	42.0844	0.002	0.0025
   126	42.0843	0.002	0.0025
   127	42.0843	0.002	0.0025
   128	42.0843	0.002	0.0025
   129	42.0843	0.002	0.0025
   130	42.0843	0.002	0.0025
   131	42.0843	0.002	0.0025
   132	42.0843	0.002	0.0025
   133	42.0842	0.002	0.0025
   134	42.0842	0.002	0.0025
   135	42.0843	0.002	0.0025
   136	42.0842	0.002	0.0025
   137	42.0841	0.002	0.0025
   138	42.084	0.002	0.0025
   139	42.084	0.002	0.0025
   140	42.084	0.002	0.0025
   141	42.084	0.002	0.0025
   142	42.0839	0.002	0.0025
   143	42.0836	0.002	0.0025
   144	42.0844	0.002	0.0025
   145	41.1287	0.002	0.0025
   146	33.1827	0.002	0.0025
   147	25.779	0.002	0.0025
   148	22.0441	0.002	0.0025
   149	42.0833	0.002	0.0025
   150	42.0833	0.002	0.0025
   151	42.0833	0.002	0.0025
   152	42.0833	0.002	0.0025
   153	42.0834	0.002	0.0025
   154	42.0833	0.002	0.0025
   155	42.0833	0.002	0.0025
   156	42.0833	0.002	0.0025
   157	42.0833	0.002	0.0025
   158	42.0833	0.002	0.0025
   159	42.0833	0.002	0.0025
   160	42.0833	0.002	0.0025
   161	42.0832	0.002	0.0025
   162	42.0832	0.002	0.0025
   163	42.0833	0.002	0.0025
   164	42.0832	0.002	0.0025
   165	42.0833	0.002	0.0025
   166	42.0832	0.002	0.0025
   167	42.0832	0.002	0.0025
   168	42.0832	0.002	0.0025
   169	42.0831	0.002	0.0025
   170	42.0832	0.002	0.0025
   171	42.0832	0.002	0.0025
   172	42.0831	0.002	0.0025
   173	42.0831	0.002	0.0025
   174	42.083	0.002	0.0025
   175	42.083	0.002	0.0025
   176	42.0831	0.002	0.0025
   177	42.0831	0.002	0.0025
   178	42.0829	0.002	0.0025
   179	42.0828	0.002	0.0025
   180	42.0829	0.002	0.0025
   181	42.0825	0.002	0.0025
   182	42.0852	0.002	0.0025
   183	31.4044	0.002	0.0025
   184	23.1754	0.002	0.0025
   185	20.9643	0.002	0.0025


Date: Tue Mar 29 10:30:05 2022
Total elapsed time: 996.899 seconds.

tnom = 27
temp = 27
method = modified trap
totiter = 148841
traniter = 148841
tranpoints = 50613
accept = 37187
rejected = 13426
matrix size = 37
fillins = 7
solver = Normal
Matrix Compiler1: 2.01 KB object code size  0.3/0.2/[0.1]
Matrix Compiler2: 2.56 KB object code size  0.2/0.3/[0.1]

