Circuit: * C:\Users\user\Documents\LTspiceXVII\file\Montecarlo\monte_SiC.asc

Direct Newton iteration for .op point succeeded.
.step tol=0
.step tol=0.01
.step tol=0.02
.step tol=0.03
.step tol=0.04
.step tol=0.05
.step tol=0.06
.step tol=0.07
.step tol=0.08
.step tol=0.09
.step tol=0.1
.step tol=0.11
.step tol=0.12
.step tol=0.13
.step tol=0.14
.step tol=0.15
.step tol=0.16
.step tol=0.17
.step tol=0.18
.step tol=0.19
.step tol=0.2
.step tol=0.21
.step tol=0.22
.step tol=0.23
.step tol=0.24
.step tol=0.25
.step tol=0.26
.step tol=0.27
.step tol=0.28
.step tol=0.29
.step tol=0.3
.step tol=0.31
.step tol=0.32
.step tol=0.33
.step tol=0.34
.step tol=0.35
.step tol=0.36
.step tol=0.37
.step tol=0.38
.step tol=0.39
.step tol=0.4
.step tol=0.41
.step tol=0.42
.step tol=0.43
.step tol=0.44
.step tol=0.45
.step tol=0.46
.step tol=0.47
.step tol=0.48
.step tol=0.49
.step tol=0.5
.step tol=0.51
.step tol=0.52
.step tol=0.53
.step tol=0.54
.step tol=0.55
.step tol=0.56
.step tol=0.57
.step tol=0.58
.step tol=0.59
.step tol=0.6
.step tol=0.61
.step tol=0.62
.step tol=0.63
.step tol=0.64
.step tol=0.65
.step tol=0.66
.step tol=0.67
.step tol=0.68
.step tol=0.69
.step tol=0.7
.step tol=0.71
.step tol=0.72
.step tol=0.73
.step tol=0.74
.step tol=0.75
.step tol=0.76
.step tol=0.77
.step tol=0.78
.step tol=0.79
.step tol=0.8
.step tol=0.81
.step tol=0.82
.step tol=0.83
.step tol=0.84
.step tol=0.85
.step tol=0.86
.step tol=0.87
.step tol=0.88
.step tol=0.89
.step tol=0.9
.step tol=0.91
.step tol=0.92
.step tol=0.93
.step tol=0.94
.step tol=0.95
.step tol=0.96
.step tol=0.97
.step tol=0.98
.step tol=0.99
.step tol=1


Measurement: imax
  step	MAX(-i(v1))	FROM	TO
     1	4.63688	0	2e-005
     2	4.63691	0	2e-005
     3	4.63693	0	2e-005
     4	4.63696	0	2e-005
     5	4.63699	0	2e-005
     6	4.63739	0	2e-005
     7	4.63705	0	2e-005
     8	4.63708	0	2e-005
     9	4.6371	0	2e-005
    10	4.63713	0	2e-005
    11	4.63716	0	2e-005
    12	4.63719	0	2e-005
    13	4.63772	0	2e-005
    14	4.63725	0	2e-005
    15	4.63727	0	2e-005
    16	4.6373	0	2e-005
    17	4.63733	0	2e-005
    18	4.63736	0	2e-005
    19	4.63739	0	2e-005
    20	4.63741	0	2e-005
    21	4.63744	0	2e-005
    22	4.63747	0	2e-005
    23	4.6375	0	2e-005
    24	4.63753	0	2e-005
    25	4.63756	0	2e-005
    26	4.638	0	2e-005
    27	4.63761	0	2e-005
    28	4.63842	0	2e-005
    29	4.63767	0	2e-005
    30	4.6377	0	2e-005
    31	4.63772	0	2e-005
    32	4.63775	0	2e-005
    33	4.63778	0	2e-005
    34	4.63781	0	2e-005
    35	4.63784	0	2e-005
    36	4.63787	0	2e-005
    37	4.63789	0	2e-005
    38	4.63792	0	2e-005
    39	4.63795	0	2e-005
    40	4.63798	0	2e-005
    41	4.63801	0	2e-005
    42	4.63804	0	2e-005
    43	4.63806	0	2e-005
    44	4.63809	0	2e-005
    45	4.63812	0	2e-005
    46	4.63815	0	2e-005
    47	4.63818	0	2e-005
    48	4.6382	0	2e-005
    49	4.63823	0	2e-005
    50	4.63826	0	2e-005
    51	4.63829	0	2e-005
    52	4.63832	0	2e-005
    53	4.63835	0	2e-005
    54	4.63837	0	2e-005
    55	4.6384	0	2e-005
    56	4.63843	0	2e-005
    57	4.63846	0	2e-005
    58	4.63936	0	2e-005
    59	4.63851	0	2e-005
    60	4.63854	0	2e-005
    61	4.63857	0	2e-005
    62	4.6386	0	2e-005
    63	4.63863	0	2e-005
    64	4.63866	0	2e-005
    65	4.63868	0	2e-005
    66	4.63871	0	2e-005
    67	4.63874	0	2e-005
    68	4.63877	0	2e-005
    69	4.6388	0	2e-005
    70	4.63883	0	2e-005
    71	4.63885	0	2e-005
    72	4.63888	0	2e-005
    73	4.63891	0	2e-005
    74	4.63894	0	2e-005
    75	4.63897	0	2e-005
    76	4.63914	0	2e-005
    77	4.63902	0	2e-005
    78	4.63905	0	2e-005
    79	4.63908	0	2e-005
    80	4.63911	0	2e-005
    81	4.63914	0	2e-005
    82	4.63916	0	2e-005
    83	4.63919	0	2e-005
    84	4.63922	0	2e-005
    85	4.63925	0	2e-005
    86	4.63928	0	2e-005
    87	4.6393	0	2e-005
    88	4.63933	0	2e-005
    89	4.63936	0	2e-005
    90	4.63939	0	2e-005
    91	4.63942	0	2e-005
    92	4.63945	0	2e-005
    93	4.63947	0	2e-005
    94	4.6395	0	2e-005
    95	4.63953	0	2e-005
    96	4.63956	0	2e-005
    97	4.63959	0	2e-005
    98	4.63961	0	2e-005
    99	4.63964	0	2e-005
   100	4.63967	0	2e-005
   101	4.6397	0	2e-005

Measurement: tr1
  step	tr1	FROM	TO
     1	3.76731e-008	2.0089e-006	2.04657e-006
     2	3.74434e-008	2.00889e-006	2.04634e-006
     3	3.76736e-008	2.00889e-006	2.04656e-006
     4	3.749e-008	2.00884e-006	2.04633e-006
     5	3.75016e-008	2.00883e-006	2.04633e-006
     6	3.75961e-008	2.00883e-006	2.04642e-006
     7	3.76055e-008	2.00882e-006	2.04643e-006
     8	3.76316e-008	2.00882e-006	2.04645e-006
     9	3.76449e-008	2.00882e-006	2.04646e-006
    10	3.76562e-008	2.00881e-006	2.04647e-006
    11	3.76905e-008	2.00881e-006	2.0465e-006
    12	3.76951e-008	2.00881e-006	2.0465e-006
    13	3.77436e-008	2.0088e-006	2.04655e-006
    14	3.77e-008	2.0088e-006	2.0465e-006
    15	3.77017e-008	2.0088e-006	2.0465e-006
    16	3.7729e-008	2.00879e-006	2.04652e-006
    17	3.77404e-008	2.00879e-006	2.04653e-006
    18	3.77457e-008	2.00879e-006	2.04653e-006
    19	3.77012e-008	2.00878e-006	2.04648e-006
    20	3.77449e-008	2.00877e-006	2.04652e-006
    21	3.77505e-008	2.00877e-006	2.04652e-006
    22	3.77473e-008	2.00877e-006	2.04652e-006
    23	3.77267e-008	2.00877e-006	2.0465e-006
    24	3.76826e-008	2.00877e-006	2.04645e-006
    25	3.76582e-008	2.00877e-006	2.04643e-006
    26	3.76955e-008	2.00877e-006	2.04647e-006
    27	3.7685e-008	2.00877e-006	2.04646e-006
    28	3.76757e-008	2.00877e-006	2.04645e-006
    29	3.75415e-008	2.00877e-006	2.04631e-006
    30	3.74768e-008	2.00877e-006	2.04625e-006
    31	3.74079e-008	2.00877e-006	2.04618e-006
    32	3.72527e-008	2.00877e-006	2.04602e-006
    33	3.72842e-008	2.00877e-006	2.04605e-006
    34	3.73211e-008	2.00877e-006	2.04609e-006
    35	3.73572e-008	2.00877e-006	2.04612e-006
    36	3.73953e-008	2.00876e-006	2.04616e-006
    37	3.74483e-008	2.00876e-006	2.04621e-006
    38	3.74992e-008	2.00876e-006	2.04626e-006
    39	3.75705e-008	2.00876e-006	2.04633e-006
    40	3.76751e-008	2.00876e-006	2.04644e-006
    41	3.76155e-008	2.00876e-006	2.04638e-006
    42	3.76467e-008	2.00876e-006	2.04641e-006
    43	3.77266e-008	2.00876e-006	2.04649e-006
    44	3.76989e-008	2.00876e-006	2.04646e-006
    45	3.77095e-008	2.00876e-006	2.04647e-006
    46	3.76254e-008	2.00876e-006	2.04638e-006
    47	3.76293e-008	2.00876e-006	2.04639e-006
    48	3.76342e-008	2.00876e-006	2.04639e-006
    49	3.73286e-008	2.00881e-006	2.04614e-006
    50	3.76761e-008	2.00881e-006	2.04648e-006
    51	3.75896e-008	2.00881e-006	2.0464e-006
    52	3.76751e-008	2.00881e-006	2.04648e-006
    53	3.75789e-008	2.00881e-006	2.04638e-006
    54	3.75938e-008	2.0088e-006	2.0464e-006
    55	3.72039e-008	2.0088e-006	2.04601e-006
    56	3.74555e-008	2.0088e-006	2.04626e-006
    57	3.75445e-008	2.0088e-006	2.04635e-006
    58	3.74227e-008	2.00879e-006	2.04622e-006
    59	3.72437e-008	2.00879e-006	2.04604e-006
    60	3.72771e-008	2.00879e-006	2.04607e-006
    61	3.7307e-008	2.00879e-006	2.0461e-006
    62	3.73338e-008	2.00879e-006	2.04612e-006
    63	3.75094e-008	2.00879e-006	2.0463e-006
    64	3.72947e-008	2.00879e-006	2.04608e-006
    65	3.77126e-008	2.00879e-006	2.0465e-006
    66	3.72832e-008	2.00878e-006	2.04607e-006
    67	3.71731e-008	2.00878e-006	2.04596e-006
    68	3.76006e-008	2.00878e-006	2.04638e-006
    69	3.72503e-008	2.00878e-006	2.04603e-006
    70	3.76941e-008	2.00878e-006	2.04647e-006
    71	3.76253e-008	2.00878e-006	2.0464e-006
    72	3.72731e-008	2.00878e-006	2.04605e-006
    73	3.74213e-008	2.00878e-006	2.0462e-006
    74	3.71674e-008	2.00878e-006	2.04594e-006
    75	3.73196e-008	2.00878e-006	2.0461e-006
    76	3.73324e-008	2.00877e-006	2.04611e-006
    77	3.73241e-008	2.00877e-006	2.0461e-006
    78	3.7327e-008	2.00877e-006	2.0461e-006
    79	3.73301e-008	2.00877e-006	2.0461e-006
    80	3.73336e-008	2.00877e-006	2.0461e-006
    81	3.74428e-008	2.00877e-006	2.04621e-006
    82	3.74443e-008	2.00877e-006	2.04621e-006
    83	3.74461e-008	2.00877e-006	2.04621e-006
    84	3.74484e-008	2.00877e-006	2.04622e-006
    85	3.7451e-008	2.00877e-006	2.04622e-006
    86	3.7454e-008	2.00877e-006	2.04622e-006
    87	3.74572e-008	2.00876e-006	2.04622e-006
    88	3.74609e-008	2.00876e-006	2.04622e-006
    89	3.74648e-008	2.00876e-006	2.04623e-006
    90	3.74691e-008	2.00876e-006	2.04623e-006
    91	3.74737e-008	2.00876e-006	2.04624e-006
    92	3.74785e-008	2.00876e-006	2.04624e-006
    93	3.74836e-008	2.00876e-006	2.04624e-006
    94	3.7489e-008	2.00876e-006	2.04625e-006
    95	3.74946e-008	2.00876e-006	2.04625e-006
    96	3.75004e-008	2.00876e-006	2.04626e-006
    97	3.75065e-008	2.00876e-006	2.04626e-006
    98	3.75128e-008	2.00876e-006	2.04627e-006
    99	3.75193e-008	2.00876e-006	2.04628e-006
   100	3.75261e-008	2.00876e-006	2.04628e-006
   101	3.7533e-008	2.00875e-006	2.04629e-006

Measurement: tr2
  step	tr2	FROM	TO
     1	4.26092e-009	1.00158e-005	1.00201e-005
     2	4.16881e-009	1.00159e-005	1.00201e-005
     3	4.25522e-009	1.00158e-005	1.00201e-005
     4	4.17104e-009	1.00159e-005	1.00201e-005
     5	4.27337e-009	1.00158e-005	1.00201e-005
     6	4.15937e-009	1.00159e-005	1.00201e-005
     7	4.25905e-009	1.00158e-005	1.00201e-005
     8	4.2594e-009	1.00158e-005	1.00201e-005
     9	4.25555e-009	1.00158e-005	1.00201e-005
    10	4.2227e-009	1.00158e-005	1.002e-005
    11	4.18172e-009	1.00159e-005	1.00201e-005
    12	4.25485e-009	1.00158e-005	1.002e-005
    13	4.07342e-009	1.0016e-005	1.00201e-005
    14	4.18456e-009	1.00159e-005	1.002e-005
    15	4.17725e-009	1.00159e-005	1.002e-005
    16	4.18316e-009	1.00159e-005	1.002e-005
    17	4.23126e-009	1.00158e-005	1.002e-005
    18	4.23018e-009	1.00158e-005	1.002e-005
    19	4.25722e-009	1.00158e-005	1.002e-005
    20	4.22808e-009	1.00158e-005	1.002e-005
    21	4.22707e-009	1.00158e-005	1.002e-005
    22	4.22598e-009	1.00158e-005	1.002e-005
    23	4.21349e-009	1.00158e-005	1.002e-005
    24	4.20755e-009	1.00158e-005	1.002e-005
    25	4.15904e-009	1.00159e-005	1.002e-005
    26	4.09123e-009	1.0016e-005	1.002e-005
    27	4.16616e-009	1.00159e-005	1.002e-005
    28	4.63966e-009	1.00154e-005	1.00201e-005
    29	4.216e-009	1.00158e-005	1.002e-005
    30	4.22023e-009	1.00158e-005	1.002e-005
    31	4.22942e-009	1.00158e-005	1.002e-005
    32	4.30709e-009	1.00157e-005	1.002e-005
    33	4.31385e-009	1.00157e-005	1.002e-005
    34	4.21578e-009	1.00158e-005	1.002e-005
    35	4.14844e-009	1.00159e-005	1.002e-005
    36	4.21976e-009	1.00158e-005	1.002e-005
    37	4.2302e-009	1.00158e-005	1.002e-005
    38	4.24657e-009	1.00158e-005	1.002e-005
    39	4.21172e-009	1.00158e-005	1.002e-005
    40	4.21687e-009	1.00158e-005	1.002e-005
    41	4.21458e-009	1.00158e-005	1.002e-005
    42	4.21166e-009	1.00158e-005	1.002e-005
    43	4.21096e-009	1.00158e-005	1.002e-005
    44	4.21025e-009	1.00158e-005	1.002e-005
    45	4.20955e-009	1.00158e-005	1.002e-005
    46	4.20894e-009	1.00158e-005	1.002e-005
    47	4.2081e-009	1.00158e-005	1.002e-005
    48	4.20753e-009	1.00158e-005	1.002e-005
    49	4.21783e-009	1.00158e-005	1.002e-005
    50	4.20619e-009	1.00158e-005	1.002e-005
    51	4.14767e-009	1.00159e-005	1.002e-005
    52	4.20815e-009	1.00158e-005	1.002e-005
    53	4.20314e-009	1.00158e-005	1.002e-005
    54	4.25769e-009	1.00158e-005	1.002e-005
    55	4.27371e-009	1.00157e-005	1.002e-005
    56	4.23558e-009	1.00158e-005	1.002e-005
    57	4.19822e-009	1.00158e-005	1.002e-005
    58	4.3801e-009	1.00156e-005	1.002e-005
    59	4.19591e-009	1.00158e-005	1.002e-005
    60	4.19534e-009	1.00158e-005	1.002e-005
    61	4.32536e-009	1.00157e-005	1.002e-005
    62	4.26639e-009	1.00157e-005	1.002e-005
    63	4.22332e-009	1.00158e-005	1.002e-005
    64	4.19055e-009	1.00158e-005	1.002e-005
    65	4.19445e-009	1.00158e-005	1.002e-005
    66	4.19606e-009	1.00158e-005	1.002e-005
    67	4.2009e-009	1.00158e-005	1.002e-005
    68	4.12672e-009	1.00159e-005	1.002e-005
    69	4.1911e-009	1.00158e-005	1.002e-005
    70	4.19202e-009	1.00158e-005	1.002e-005
    71	4.11721e-009	1.00159e-005	1.002e-005
    72	4.12633e-009	1.00159e-005	1.002e-005
    73	4.20023e-009	1.00158e-005	1.002e-005
    74	4.26908e-009	1.00157e-005	1.002e-005
    75	4.35501e-009	1.00156e-005	1.002e-005
    76	4.10509e-009	1.00159e-005	1.002e-005
    77	4.30629e-009	1.00157e-005	1.002e-005
    78	4.27051e-009	1.00157e-005	1.002e-005
    79	4.21745e-009	1.00158e-005	1.002e-005
    80	4.25035e-009	1.00158e-005	1.002e-005
    81	4.21502e-009	1.00158e-005	1.002e-005
    82	4.2146e-009	1.00158e-005	1.002e-005
    83	4.21417e-009	1.00158e-005	1.002e-005
    84	4.21376e-009	1.00158e-005	1.002e-005
    85	4.21334e-009	1.00158e-005	1.002e-005
    86	4.21293e-009	1.00158e-005	1.002e-005
    87	4.21252e-009	1.00158e-005	1.002e-005
    88	4.21212e-009	1.00158e-005	1.002e-005
    89	4.21172e-009	1.00158e-005	1.002e-005
    90	4.21132e-009	1.00158e-005	1.002e-005
    91	4.21092e-009	1.00158e-005	1.002e-005
    92	4.21053e-009	1.00158e-005	1.002e-005
    93	4.21015e-009	1.00158e-005	1.002e-005
    94	4.20983e-009	1.00158e-005	1.002e-005
    95	4.20931e-009	1.00158e-005	1.002e-005
    96	4.20877e-009	1.00158e-005	1.002e-005
    97	4.20682e-009	1.00158e-005	1.002e-005
    98	4.2071e-009	1.00158e-005	1.002e-005
    99	4.20712e-009	1.00158e-005	1.002e-005
   100	4.20678e-009	1.00158e-005	1.002e-005
   101	4.17774e-009	1.00158e-005	1.002e-005


Date: Sat Feb 19 15:01:21 2022
Total elapsed time: 1.137 seconds.

tnom = 27
temp = 27
method = modified trap
totiter = 2401
traniter = 2378
tranpoints = 1155
accept = 1122
rejected = 33
matrix size = 9
fillins = 0
solver = Normal
Matrix Compiler1: 538 bytes object code size  0.1/0.1/[0.1]
Matrix Compiler2: 707 bytes object code size  0.1/0.1/[0.1]

