Circuit: * C:\Users\user\Documents\LTspiceXVII\file\Montecarlo\monte_SiC.asc

Direct Newton iteration for .op point succeeded.
.step tol1=0
.step tol1=0.01
.step tol1=0.02
.step tol1=0.03
.step tol1=0.04
.step tol1=0.05
.step tol1=0.06
.step tol1=0.07
.step tol1=0.08
.step tol1=0.09
.step tol1=0.1
.step tol1=0.11
.step tol1=0.12
.step tol1=0.13
.step tol1=0.14
.step tol1=0.15
.step tol1=0.16
.step tol1=0.17
.step tol1=0.18
.step tol1=0.19
.step tol1=0.2
.step tol1=0.21
.step tol1=0.22
.step tol1=0.23
.step tol1=0.24
.step tol1=0.25
.step tol1=0.26
.step tol1=0.27
.step tol1=0.28
.step tol1=0.29
.step tol1=0.3
.step tol1=0.31
.step tol1=0.32
.step tol1=0.33
.step tol1=0.34
.step tol1=0.35
.step tol1=0.36
.step tol1=0.37
.step tol1=0.38
.step tol1=0.39
.step tol1=0.4
.step tol1=0.41
.step tol1=0.42
.step tol1=0.43
.step tol1=0.44
.step tol1=0.45
.step tol1=0.46
.step tol1=0.47
.step tol1=0.48
.step tol1=0.49
.step tol1=0.5
.step tol1=0.51
.step tol1=0.52
.step tol1=0.53
.step tol1=0.54
.step tol1=0.55
.step tol1=0.56
.step tol1=0.57
.step tol1=0.58
.step tol1=0.59
.step tol1=0.6
.step tol1=0.61
.step tol1=0.62
.step tol1=0.63
.step tol1=0.64
.step tol1=0.65
.step tol1=0.66
.step tol1=0.67
.step tol1=0.68
.step tol1=0.69
.step tol1=0.7
.step tol1=0.71
.step tol1=0.72
.step tol1=0.73
.step tol1=0.74
.step tol1=0.75
.step tol1=0.76
.step tol1=0.77
.step tol1=0.78
.step tol1=0.79
.step tol1=0.8
.step tol1=0.81
.step tol1=0.82
.step tol1=0.83
.step tol1=0.84
.step tol1=0.85
.step tol1=0.86
.step tol1=0.87
.step tol1=0.88
.step tol1=0.89
.step tol1=0.9
.step tol1=0.91
.step tol1=0.92
.step tol1=0.93
.step tol1=0.94
.step tol1=0.95
.step tol1=0.96
.step tol1=0.97
.step tol1=0.98
.step tol1=0.99
.step tol1=1


Measurement: imax
  step	MAX(-i(v1))	FROM	TO
     1	4.63688	0	2e-005
     2	4.59208	0	2e-005
     3	4.54814	0	2e-005
     4	4.50502	0	2e-005
     5	4.46272	0	2e-005
     6	4.42163	0	2e-005
     7	4.381	0	2e-005
     8	4.34043	0	2e-005
     9	4.30115	0	2e-005
    10	4.26256	0	2e-005
    11	4.22476	0	2e-005
    12	4.18768	0	2e-005
    13	4.15122	0	2e-005
    14	4.11489	0	2e-005
    15	4.07956	0	2e-005
    16	4.04483	0	2e-005
    17	4.01125	0	2e-005
    18	3.97769	0	2e-005
    19	3.94462	0	2e-005
    20	3.91216	0	2e-005
    21	3.88	0	2e-005
    22	3.84824	0	2e-005
    23	3.81731	0	2e-005
    24	3.78688	0	2e-005
    25	3.75771	0	2e-005
    26	3.72798	0	2e-005
    27	3.6992	0	2e-005
    28	3.67061	0	2e-005
    29	3.64215	0	2e-005
    30	3.61443	0	2e-005
    31	3.58742	0	2e-005
    32	3.55985	0	2e-005
    33	3.534	0	2e-005
    34	3.50784	0	2e-005
    35	3.48208	0	2e-005
    36	3.45686	0	2e-005
    37	3.43178	0	2e-005
    38	3.40721	0	2e-005
    39	3.38294	0	2e-005
    40	3.35909	0	2e-005
    41	3.33549	0	2e-005
    42	3.31213	0	2e-005
    43	3.28908	0	2e-005
    44	3.26646	0	2e-005
    45	3.24414	0	2e-005
    46	3.2221	0	2e-005
    47	3.20034	0	2e-005
    48	3.17884	0	2e-005
    49	3.15771	0	2e-005
    50	3.13685	0	2e-005
    51	3.11627	0	2e-005
    52	3.09581	0	2e-005
    53	3.07589	0	2e-005
    54	3.05608	0	2e-005
    55	3.03653	0	2e-005
    56	3.01722	0	2e-005
    57	2.99816	0	2e-005
    58	2.9793	0	2e-005
    59	2.96073	0	2e-005
    60	2.94239	0	2e-005
    61	2.92427	0	2e-005
    62	2.90638	0	2e-005
    63	2.8887	0	2e-005
    64	2.87124	0	2e-005
    65	2.85399	0	2e-005
    66	2.83694	0	2e-005
    67	2.8201	0	2e-005
    68	2.80346	0	2e-005
    69	2.787	0	2e-005
    70	2.77075	0	2e-005
    71	2.75468	0	2e-005
    72	2.73879	0	2e-005
    73	2.72309	0	2e-005
    74	2.70757	0	2e-005
    75	2.69222	0	2e-005
    76	2.67705	0	2e-005
    77	2.66205	0	2e-005
    78	2.64721	0	2e-005
    79	2.63254	0	2e-005
    80	2.61803	0	2e-005
    81	2.60368	0	2e-005
    82	2.58948	0	2e-005
    83	2.57544	0	2e-005
    84	2.56155	0	2e-005
    85	2.54781	0	2e-005
    86	2.53422	0	2e-005
    87	2.52077	0	2e-005
    88	2.50747	0	2e-005
    89	2.4943	0	2e-005
    90	2.48127	0	2e-005
    91	2.46838	0	2e-005
    92	2.45562	0	2e-005
    93	2.44299	0	2e-005
    94	2.43048	0	2e-005
    95	2.41811	0	2e-005
    96	2.40586	0	2e-005
    97	2.39374	0	2e-005
    98	2.38174	0	2e-005
    99	2.36985	0	2e-005
   100	2.35809	0	2e-005
   101	2.34644	0	2e-005

Measurement: tr1
  step	tr1	FROM	TO
     1	3.76731e-008	2.0089e-006	2.04657e-006
     2	3.59769e-008	2.0089e-006	2.04488e-006
     3	3.46448e-008	2.0089e-006	2.04355e-006
     4	3.30255e-008	2.00891e-006	2.04193e-006
     5	3.1797e-008	2.00891e-006	2.04071e-006
     6	3.0595e-008	2.00891e-006	2.03951e-006
     7	2.94974e-008	2.00891e-006	2.03841e-006
     8	2.84061e-008	2.00892e-006	2.03732e-006
     9	2.72828e-008	2.00892e-006	2.0362e-006
    10	2.63393e-008	2.00886e-006	2.0352e-006
    11	2.54293e-008	2.00886e-006	2.03429e-006
    12	2.45757e-008	2.00886e-006	2.03343e-006
    13	2.37544e-008	2.00885e-006	2.03261e-006
    14	2.29532e-008	2.00885e-006	2.03181e-006
    15	2.22938e-008	2.00885e-006	2.03114e-006
    16	2.16982e-008	2.00885e-006	2.03055e-006
    17	2.11023e-008	2.00884e-006	2.02994e-006
    18	2.05026e-008	2.00885e-006	2.02935e-006
    19	1.99608e-008	2.00885e-006	2.02881e-006
    20	1.94175e-008	2.00886e-006	2.02827e-006
    21	1.89506e-008	2.00886e-006	2.02781e-006
    22	1.84802e-008	2.00887e-006	2.02735e-006
    23	1.81161e-008	2.00887e-006	2.02699e-006
    24	1.77223e-008	2.00888e-006	2.0266e-006
    25	1.7461e-008	2.00889e-006	2.02635e-006
    26	1.71618e-008	2.00888e-006	2.02604e-006
    27	1.68301e-008	2.00897e-006	2.0258e-006
    28	1.65784e-008	2.00896e-006	2.02554e-006
    29	1.62963e-008	2.00896e-006	2.02526e-006
    30	1.60814e-008	2.00896e-006	2.02504e-006
    31	1.59105e-008	2.00896e-006	2.02487e-006
    32	1.57013e-008	2.00893e-006	2.02463e-006
    33	1.55308e-008	2.00892e-006	2.02445e-006
    34	1.59225e-008	2.0084e-006	2.02432e-006
    35	1.57388e-008	2.0084e-006	2.02414e-006
    36	1.55597e-008	2.00841e-006	2.02397e-006
    37	1.53746e-008	2.00841e-006	2.02379e-006
    38	1.51979e-008	2.00842e-006	2.02361e-006
    39	1.5086e-008	2.00842e-006	2.02351e-006
    40	1.49767e-008	2.00843e-006	2.0234e-006
    41	1.48668e-008	2.00843e-006	2.0233e-006
    42	1.47557e-008	2.00843e-006	2.02319e-006
    43	1.46452e-008	2.00844e-006	2.02308e-006
    44	1.45381e-008	2.00844e-006	2.02298e-006
    45	1.44316e-008	2.00845e-006	2.02288e-006
    46	1.43253e-008	2.00845e-006	2.02278e-006
    47	1.4219e-008	2.00845e-006	2.02267e-006
    48	1.41127e-008	2.00846e-006	2.02257e-006
    49	1.40086e-008	2.00846e-006	2.02247e-006
    50	1.39051e-008	2.00847e-006	2.02237e-006
    51	1.33554e-008	2.00902e-006	2.02238e-006
    52	1.31898e-008	2.00902e-006	2.02221e-006
    53	1.32064e-008	2.00902e-006	2.02223e-006
    54	1.31296e-008	2.00902e-006	2.02215e-006
    55	1.30747e-008	2.00903e-006	2.0221e-006
    56	1.28949e-008	2.00902e-006	2.02191e-006
    57	1.29035e-008	2.00902e-006	2.02192e-006
    58	1.28929e-008	2.00902e-006	2.02191e-006
    59	1.28489e-008	2.00902e-006	2.02187e-006
    60	1.27522e-008	2.00902e-006	2.02178e-006
    61	1.26062e-008	2.00903e-006	2.02164e-006
    62	1.25913e-008	2.00904e-006	2.02163e-006
    63	1.25669e-008	2.00905e-006	2.02161e-006
    64	1.25571e-008	2.00905e-006	2.02161e-006
    65	1.25114e-008	2.00905e-006	2.02157e-006
    66	1.24619e-008	2.00906e-006	2.02152e-006
    67	1.23992e-008	2.00907e-006	2.02147e-006
    68	1.23549e-008	2.00907e-006	2.02143e-006
    69	1.23475e-008	2.00902e-006	2.02137e-006
    70	1.23037e-008	2.00902e-006	2.02132e-006
    71	1.22608e-008	2.00902e-006	2.02128e-006
    72	1.22162e-008	2.00902e-006	2.02124e-006
    73	1.21751e-008	2.00902e-006	2.0212e-006
    74	1.21349e-008	2.00902e-006	2.02116e-006
    75	1.20955e-008	2.00902e-006	2.02112e-006
    76	1.20569e-008	2.00902e-006	2.02108e-006
    77	1.19925e-008	2.00902e-006	2.02101e-006
    78	1.25483e-008	2.0085e-006	2.02104e-006
    79	1.25201e-008	2.0085e-006	2.02102e-006
    80	1.24922e-008	2.0085e-006	2.02099e-006
    81	1.24646e-008	2.0085e-006	2.02097e-006
    82	1.24374e-008	2.00851e-006	2.02095e-006
    83	1.24106e-008	2.00851e-006	2.02092e-006
    84	1.2384e-008	2.00851e-006	2.0209e-006
    85	1.23578e-008	2.00852e-006	2.02087e-006
    86	1.23318e-008	2.00852e-006	2.02085e-006
    87	1.23062e-008	2.00852e-006	2.02083e-006
    88	1.22809e-008	2.00853e-006	2.02081e-006
    89	1.22559e-008	2.00853e-006	2.02078e-006
    90	1.22311e-008	2.00853e-006	2.02076e-006
    91	1.22066e-008	2.00854e-006	2.02074e-006
    92	1.21824e-008	2.00854e-006	2.02072e-006
    93	1.21584e-008	2.00854e-006	2.0207e-006
    94	1.16309e-008	2.00902e-006	2.02065e-006
    95	1.16031e-008	2.00902e-006	2.02062e-006
    96	1.15745e-008	2.00902e-006	2.02059e-006
    97	1.15449e-008	2.00902e-006	2.02056e-006
    98	1.15145e-008	2.00902e-006	2.02053e-006
    99	1.1483e-008	2.00902e-006	2.0205e-006
   100	1.14505e-008	2.00902e-006	2.02047e-006
   101	1.14329e-008	2.00902e-006	2.02045e-006

Measurement: tr2
  step	tr2	FROM	TO
     1	4.26092e-009	1.00158e-005	1.00201e-005
     2	4.15109e-009	1.00158e-005	1.00199e-005
     3	4.21825e-009	1.00156e-005	1.00199e-005
     4	4.15319e-009	1.00156e-005	1.00198e-005
     5	4.14419e-009	1.00155e-005	1.00197e-005
     6	4.12761e-009	1.00154e-005	1.00196e-005
     7	4.12756e-009	1.00153e-005	1.00195e-005
     8	4.11388e-009	1.00153e-005	1.00194e-005
     9	4.14055e-009	1.00152e-005	1.00193e-005
    10	4.15309e-009	1.00151e-005	1.00192e-005
    11	4.0335e-009	1.0015e-005	1.0019e-005
    12	4.06955e-009	1.00149e-005	1.0019e-005
    13	4.0925e-009	1.00148e-005	1.00189e-005
    14	4.09515e-009	1.00147e-005	1.00188e-005
    15	4.24788e-009	1.00146e-005	1.00189e-005
    16	4.25745e-009	1.00145e-005	1.00188e-005
    17	4.29953e-009	1.00145e-005	1.00188e-005
    18	4.34792e-009	1.00144e-005	1.00187e-005
    19	4.38449e-009	1.00143e-005	1.00187e-005
    20	4.39485e-009	1.00142e-005	1.00186e-005
    21	4.46655e-009	1.00141e-005	1.00186e-005
    22	4.51513e-009	1.0014e-005	1.00185e-005
    23	4.5493e-009	1.00139e-005	1.00185e-005
    24	4.60154e-009	1.00138e-005	1.00184e-005
    25	4.64899e-009	1.00138e-005	1.00184e-005
    26	4.52573e-009	1.00137e-005	1.00182e-005
    27	4.57695e-009	1.00136e-005	1.00182e-005
    28	4.78895e-009	1.00135e-005	1.00183e-005
    29	4.85219e-009	1.00134e-005	1.00183e-005
    30	4.68361e-009	1.00134e-005	1.00181e-005
    31	4.73697e-009	1.00133e-005	1.0018e-005
    32	4.78644e-009	1.00132e-005	1.0018e-005
    33	4.9014e-009	1.00132e-005	1.00181e-005
    34	4.9671e-009	1.00131e-005	1.00181e-005
    35	5.10021e-009	1.0013e-005	1.00181e-005
    36	5.14338e-009	1.0013e-005	1.00181e-005
    37	5.05903e-009	1.00129e-005	1.0018e-005
    38	5.13451e-009	1.00129e-005	1.0018e-005
    39	5.25745e-009	1.00128e-005	1.00181e-005
    40	5.09396e-009	1.00128e-005	1.00179e-005
    41	5.32968e-009	1.00127e-005	1.00181e-005
    42	5.17504e-009	1.00127e-005	1.00179e-005
    43	5.3996e-009	1.00126e-005	1.0018e-005
    44	5.15774e-009	1.00126e-005	1.00178e-005
    45	5.25564e-009	1.00126e-005	1.00178e-005
    46	5.44235e-009	1.00125e-005	1.00179e-005
    47	5.25778e-009	1.00125e-005	1.00177e-005
    48	5.27845e-009	1.00125e-005	1.00178e-005
    49	5.31816e-009	1.00125e-005	1.00178e-005
    50	5.57104e-009	1.00124e-005	1.0018e-005
    51	5.5329e-009	1.00123e-005	1.00179e-005
    52	5.60666e-009	1.00124e-005	1.0018e-005
    53	5.39309e-009	1.00123e-005	1.00177e-005
    54	5.37632e-009	1.00123e-005	1.00177e-005
    55	5.4062e-009	1.00123e-005	1.00177e-005
    56	5.43167e-009	1.00123e-005	1.00177e-005
    57	5.48641e-009	1.00122e-005	1.00177e-005
    58	5.41241e-009	1.00122e-005	1.00177e-005
    59	5.66964e-009	1.00123e-005	1.00179e-005
    60	5.68349e-009	1.00122e-005	1.00179e-005
    61	5.64714e-009	1.00122e-005	1.00179e-005
    62	5.62301e-009	1.00122e-005	1.00178e-005
    63	5.534e-009	1.00121e-005	1.00177e-005
    64	5.57603e-009	1.00121e-005	1.00177e-005
    65	5.5432e-009	1.00121e-005	1.00177e-005
    66	5.53502e-009	1.00121e-005	1.00176e-005
    67	5.55605e-009	1.00121e-005	1.00176e-005
    68	5.57626e-009	1.00121e-005	1.00176e-005
    69	5.77354e-009	1.00121e-005	1.00179e-005
    70	5.56447e-009	1.00121e-005	1.00176e-005
    71	5.57618e-009	1.00121e-005	1.00176e-005
    72	5.72967e-009	1.00121e-005	1.00179e-005
    73	5.82523e-009	1.00121e-005	1.00179e-005
    74	5.84925e-009	1.00121e-005	1.00179e-005
    75	5.60174e-009	1.00121e-005	1.00177e-005
    76	5.72613e-009	1.00121e-005	1.00178e-005
    77	5.88832e-009	1.0012e-005	1.00179e-005
    78	5.7489e-009	1.00121e-005	1.00178e-005
    79	5.89741e-009	1.0012e-005	1.00179e-005
    80	5.58603e-009	1.0012e-005	1.00176e-005
    81	5.51247e-009	1.00121e-005	1.00176e-005
    82	5.56161e-009	1.0012e-005	1.00176e-005
    83	5.8541e-009	1.0012e-005	1.00178e-005
    84	5.51925e-009	1.00121e-005	1.00176e-005
    85	5.571e-009	1.0012e-005	1.00176e-005
    86	5.71733e-009	1.0012e-005	1.00177e-005
    87	5.91352e-009	1.0012e-005	1.00179e-005
    88	5.55036e-009	1.0012e-005	1.00176e-005
    89	5.6636e-009	1.0012e-005	1.00177e-005
    90	5.70675e-009	1.0012e-005	1.00177e-005
    91	5.65178e-009	1.0012e-005	1.00176e-005
    92	5.59861e-009	1.0012e-005	1.00176e-005
    93	5.58754e-009	1.0012e-005	1.00176e-005
    94	5.57449e-009	1.0012e-005	1.00175e-005
    95	5.57705e-009	1.0012e-005	1.00175e-005
    96	5.58051e-009	1.0012e-005	1.00176e-005
    97	5.58412e-009	1.0012e-005	1.00176e-005
    98	5.63382e-009	1.00119e-005	1.00176e-005
    99	5.60452e-009	1.0012e-005	1.00176e-005
   100	5.72895e-009	1.00119e-005	1.00176e-005
   101	5.62082e-009	1.00119e-005	1.00176e-005


Date: Mon Feb 21 18:46:44 2022
Total elapsed time: 1.203 seconds.

tnom = 27
temp = 27
method = modified trap
totiter = 2306
traniter = 2284
tranpoints = 1126
accept = 1109
rejected = 17
matrix size = 9
fillins = 0
solver = Normal
Matrix Compiler1: 538 bytes object code size  0.1/0.1/[0.0]
Matrix Compiler2: off  [0.1]/0.1/0.1

