Circuit: * C:\Users\user\Documents\LTspiceXVII\file\Montecarlo\monte_SiC.asc

Direct Newton iteration for .op point succeeded.
.step tol1=0
.step tol1=0.01
.step tol1=0.02
.step tol1=0.03
.step tol1=0.04
.step tol1=0.05
.step tol1=0.06
.step tol1=0.07
.step tol1=0.08
.step tol1=0.09
.step tol1=0.1
.step tol1=0.11
.step tol1=0.12
.step tol1=0.13
.step tol1=0.14
.step tol1=0.15
.step tol1=0.16
.step tol1=0.17
.step tol1=0.18
.step tol1=0.19
.step tol1=0.2
.step tol1=0.21
.step tol1=0.22
.step tol1=0.23
.step tol1=0.24
.step tol1=0.25
.step tol1=0.26
.step tol1=0.27
.step tol1=0.28
.step tol1=0.29
.step tol1=0.3
.step tol1=0.31
.step tol1=0.32
.step tol1=0.33
.step tol1=0.34
.step tol1=0.35
.step tol1=0.36
.step tol1=0.37
.step tol1=0.38
.step tol1=0.39
.step tol1=0.4
.step tol1=0.41
.step tol1=0.42
.step tol1=0.43
.step tol1=0.44
.step tol1=0.45
.step tol1=0.46
.step tol1=0.47
.step tol1=0.48
.step tol1=0.49
.step tol1=0.5
.step tol1=0.51
.step tol1=0.52
.step tol1=0.53
.step tol1=0.54
.step tol1=0.55
.step tol1=0.56
.step tol1=0.57
.step tol1=0.58
.step tol1=0.59
.step tol1=0.6
.step tol1=0.61
.step tol1=0.62
.step tol1=0.63
.step tol1=0.64
.step tol1=0.65
.step tol1=0.66
.step tol1=0.67
.step tol1=0.68
.step tol1=0.69
.step tol1=0.7
.step tol1=0.71
.step tol1=0.72
.step tol1=0.73
.step tol1=0.74
.step tol1=0.75
.step tol1=0.76
.step tol1=0.77
.step tol1=0.78
.step tol1=0.79
.step tol1=0.8
.step tol1=0.81
.step tol1=0.82
.step tol1=0.83
.step tol1=0.84
.step tol1=0.85
.step tol1=0.86
.step tol1=0.87
.step tol1=0.88
.step tol1=0.89
.step tol1=0.9
.step tol1=0.91
.step tol1=0.92
.step tol1=0.93
.step tol1=0.94
.step tol1=0.95
.step tol1=0.96
.step tol1=0.97
.step tol1=0.98
.step tol1=0.99
.step tol1=1


Measurement: imax
  step	MAX(-i(v1))	FROM	TO
     1	4.64401	0	0.0001
     2	4.64411	0	0.0001
     3	4.64425	0	0.0001
     4	4.64432	0	0.0001
     5	4.64441	0	0.0001
     6	4.64451	0	0.0001
     7	4.64461	0	0.0001
     8	4.6447	0	0.0001
     9	4.6448	0	0.0001
    10	4.6449	0	0.0001
    11	4.645	0	0.0001
    12	4.6451	0	0.0001
    13	4.6452	0	0.0001
    14	4.6453	0	0.0001
    15	4.6454	0	0.0001
    16	4.6455	0	0.0001
    17	4.6456	0	0.0001
    18	4.6457	0	0.0001
    19	4.6458	0	0.0001
    20	4.6459	0	0.0001
    21	4.64599	0	0.0001
    22	4.64609	0	0.0001
    23	4.64619	0	0.0001
    24	4.64629	0	0.0001
    25	4.64639	0	0.0001
    26	4.64649	0	0.0001
    27	4.64659	0	0.0001
    28	4.64669	0	0.0001
    29	4.64679	0	0.0001
    30	4.64689	0	0.0001
    31	4.64699	0	0.0001
    32	4.64709	0	0.0001
    33	4.64719	0	0.0001
    34	4.64729	0	0.0001
    35	4.64739	0	0.0001
    36	4.64748	0	0.0001
    37	4.64758	0	0.0001
    38	4.64768	0	0.0001
    39	4.64778	0	0.0001
    40	4.64788	0	0.0001
    41	4.64798	0	0.0001
    42	4.64809	0	0.0001
    43	4.64819	0	0.0001
    44	4.64829	0	0.0001
    45	4.64839	0	0.0001
    46	4.64849	0	0.0001
    47	4.64859	0	0.0001
    48	4.6487	0	0.0001
    49	4.6488	0	0.0001
    50	4.6489	0	0.0001
    51	4.649	0	0.0001
    52	4.6491	0	0.0001
    53	4.6492	0	0.0001
    54	4.6493	0	0.0001
    55	4.6494	0	0.0001
    56	4.6495	0	0.0001
    57	4.6496	0	0.0001
    58	4.6497	0	0.0001
    59	4.6498	0	0.0001
    60	4.6499	0	0.0001
    61	4.65	0	0.0001
    62	4.6501	0	0.0001
    63	4.6502	0	0.0001
    64	4.6503	0	0.0001
    65	4.6504	0	0.0001
    66	4.6505	0	0.0001
    67	4.65059	0	0.0001
    68	4.65067	0	0.0001
    69	4.65079	0	0.0001
    70	4.65086	0	0.0001
    71	4.65096	0	0.0001
    72	4.65111	0	0.0001
    73	4.65118	0	0.0001
    74	4.65126	0	0.0001
    75	4.65137	0	0.0001
    76	4.6515	0	0.0001
    77	4.65156	0	0.0001
    78	4.6517	0	0.0001
    79	4.65179	0	0.0001
    80	4.6519	0	0.0001
    81	4.65196	0	0.0001
    82	4.6521	0	0.0001
    83	4.65219	0	0.0001
    84	4.65228	0	0.0001
    85	4.65236	0	0.0001
    86	4.65248	0	0.0001
    87	4.65258	0	0.0001
    88	4.65269	0	0.0001
    89	4.65279	0	0.0001
    90	4.65285	0	0.0001
    91	4.65294	0	0.0001
    92	4.65306	0	0.0001
    93	4.65319	0	0.0001
    94	4.65324	0	0.0001
    95	4.65338	0	0.0001
    96	4.65344	0	0.0001
    97	4.65355	0	0.0001
    98	4.65365	0	0.0001
    99	4.65374	0	0.0001
   100	4.65384	0	0.0001
   101	4.65394	0	0.0001

Measurement: tr1
  step	tr1	FROM	TO
     1	7.66013e-007	2.02475e-005	2.10135e-005
     2	7.6025e-007	2.02493e-005	2.10095e-005
     3	7.64976e-007	2.02457e-005	2.10106e-005
     4	7.61778e-007	2.02485e-005	2.10103e-005
     5	7.61398e-007	2.02482e-005	2.10096e-005
     6	7.61023e-007	2.02478e-005	2.10089e-005
     7	7.60651e-007	2.02475e-005	2.10082e-005
     8	7.60286e-007	2.02472e-005	2.10075e-005
     9	7.60373e-007	2.02469e-005	2.10072e-005
    10	7.60022e-007	2.02465e-005	2.10065e-005
    11	7.59676e-007	2.02462e-005	2.10059e-005
    12	7.59338e-007	2.02459e-005	2.10052e-005
    13	7.59009e-007	2.02455e-005	2.10045e-005
    14	7.58688e-007	2.02452e-005	2.10039e-005
    15	7.58376e-007	2.02449e-005	2.10032e-005
    16	7.58076e-007	2.02445e-005	2.10026e-005
    17	7.57787e-007	2.02442e-005	2.1002e-005
    18	7.57511e-007	2.02438e-005	2.10014e-005
    19	7.57246e-007	2.02435e-005	2.10007e-005
    20	7.56995e-007	2.02431e-005	2.10001e-005
    21	7.56757e-007	2.02428e-005	2.09995e-005
    22	7.58963e-007	2.02396e-005	2.09985e-005
    23	7.57936e-007	2.024e-005	2.09979e-005
    24	7.57182e-007	2.02404e-005	2.09976e-005
    25	7.56474e-007	2.02408e-005	2.09973e-005
    26	7.55682e-007	2.02411e-005	2.09968e-005
    27	7.54932e-007	2.02413e-005	2.09963e-005
    28	7.5434e-007	2.02416e-005	2.09959e-005
    29	7.53659e-007	2.02418e-005	2.09954e-005
    30	7.52889e-007	2.02419e-005	2.09948e-005
    31	7.52127e-007	2.02421e-005	2.09942e-005
    32	7.51517e-007	2.02422e-005	2.09937e-005
    33	7.50924e-007	2.02423e-005	2.09932e-005
    34	7.50344e-007	2.02424e-005	2.09927e-005
    35	7.49776e-007	2.02424e-005	2.09922e-005
    36	7.49217e-007	2.02425e-005	2.09917e-005
    37	7.48665e-007	2.02425e-005	2.09912e-005
    38	7.48118e-007	2.02426e-005	2.09907e-005
    39	7.47575e-007	2.02426e-005	2.09902e-005
    40	7.47034e-007	2.02426e-005	2.09897e-005
    41	7.46494e-007	2.02427e-005	2.09892e-005
    42	7.45955e-007	2.02427e-005	2.09886e-005
    43	7.45413e-007	2.02427e-005	2.09881e-005
    44	7.44869e-007	2.02427e-005	2.09876e-005
    45	7.44322e-007	2.02427e-005	2.0987e-005
    46	7.4377e-007	2.02427e-005	2.09865e-005
    47	7.43213e-007	2.02427e-005	2.09859e-005
    48	7.41742e-007	2.02427e-005	2.09844e-005
    49	7.41178e-007	2.02427e-005	2.09839e-005
    50	7.40612e-007	2.02427e-005	2.09833e-005
    51	7.40044e-007	2.02427e-005	2.09827e-005
    52	7.39472e-007	2.02426e-005	2.09821e-005
    53	7.38896e-007	2.02426e-005	2.09815e-005
    54	7.38316e-007	2.02426e-005	2.09809e-005
    55	7.39038e-007	2.02427e-005	2.09817e-005
    56	7.38608e-007	2.02427e-005	2.09813e-005
    57	7.38177e-007	2.02427e-005	2.09809e-005
    58	7.37747e-007	2.02427e-005	2.09804e-005
    59	7.37318e-007	2.02427e-005	2.098e-005
    60	7.37191e-007	2.02427e-005	2.09799e-005
    61	7.3676e-007	2.02427e-005	2.09794e-005
    62	7.36329e-007	2.02427e-005	2.0979e-005
    63	7.35898e-007	2.02427e-005	2.09786e-005
    64	7.35467e-007	2.02426e-005	2.09781e-005
    65	7.35034e-007	2.02426e-005	2.09777e-005
    66	7.34601e-007	2.02426e-005	2.09772e-005
    67	7.43677e-007	2.02364e-005	2.098e-005
    68	7.41186e-007	2.02387e-005	2.09799e-005
    69	7.34786e-007	2.02418e-005	2.09766e-005
    70	7.39962e-007	2.02392e-005	2.09792e-005
    71	7.34054e-007	2.02429e-005	2.0977e-005
    72	7.32735e-007	2.02427e-005	2.09754e-005
    73	7.3628e-007	2.02405e-005	2.09768e-005
    74	7.4089e-007	2.02373e-005	2.09782e-005
    75	7.35797e-007	2.02404e-005	2.09762e-005
    76	7.31662e-007	2.02421e-005	2.09738e-005
    77	7.34049e-007	2.02415e-005	2.09756e-005
    78	7.3226e-007	2.02425e-005	2.09748e-005
    79	7.38603e-007	2.0238e-005	2.09766e-005
    80	7.35139e-007	2.02401e-005	2.09752e-005
    81	7.31859e-007	2.02424e-005	2.09743e-005
    82	7.30792e-007	2.02419e-005	2.09727e-005
    83	7.31133e-007	2.02412e-005	2.09723e-005
    84	7.31256e-007	2.02403e-005	2.09715e-005
    85	7.34211e-007	2.02395e-005	2.09738e-005
    86	7.31305e-007	2.02403e-005	2.09716e-005
    87	7.30397e-007	2.02408e-005	2.09712e-005
    88	7.29706e-007	2.02413e-005	2.0971e-005
    89	7.30019e-007	2.02417e-005	2.09717e-005
    90	7.3069e-007	2.02415e-005	2.09722e-005
    91	7.33148e-007	2.02394e-005	2.09725e-005
    92	7.38753e-007	2.02347e-005	2.09734e-005
    93	7.29107e-007	2.02413e-005	2.09704e-005
    94	7.34881e-007	2.02379e-005	2.09728e-005
    95	7.37543e-007	2.02352e-005	2.09727e-005
    96	7.36352e-007	2.02363e-005	2.09727e-005
    97	7.32003e-007	2.02388e-005	2.09708e-005
    98	7.31549e-007	2.02389e-005	2.09704e-005
    99	7.37014e-007	2.02352e-005	2.09722e-005
   100	7.32945e-007	2.02381e-005	2.0971e-005
   101	7.38328e-007	2.02325e-005	2.09708e-005

Measurement: tr2
  step	tr2	FROM	TO
     1	1.80141e-007	6.0141e-005	6.03212e-005
     2	1.68045e-007	6.01417e-005	6.03097e-005
     3	1.68102e-007	6.01416e-005	6.03097e-005
     4	1.6951e-007	6.0141e-005	6.03105e-005
     5	1.67373e-007	6.0141e-005	6.03084e-005
     6	1.7387e-007	6.0141e-005	6.03148e-005
     7	1.67586e-007	6.01409e-005	6.03085e-005
     8	1.71006e-007	6.01409e-005	6.03119e-005
     9	1.73789e-007	6.01409e-005	6.03147e-005
    10	1.76514e-007	6.01409e-005	6.03174e-005
    11	1.74666e-007	6.01409e-005	6.03156e-005
    12	1.73706e-007	6.01409e-005	6.03146e-005
    13	1.70316e-007	6.01409e-005	6.03112e-005
    14	1.66739e-007	6.01408e-005	6.03076e-005
    15	1.72343e-007	6.01408e-005	6.03132e-005
    16	1.70022e-007	6.01408e-005	6.03108e-005
    17	1.75512e-007	6.01408e-005	6.03163e-005
    18	1.7224e-007	6.01408e-005	6.0313e-005
    19	1.66183e-007	6.01408e-005	6.0307e-005
    20	1.72731e-007	6.01402e-005	6.03129e-005
    21	1.74937e-007	6.01401e-005	6.03151e-005
    22	1.67057e-007	6.01407e-005	6.03078e-005
    23	1.65897e-007	6.01407e-005	6.03066e-005
    24	1.76683e-007	6.014e-005	6.03167e-005
    25	1.66892e-007	6.01406e-005	6.03075e-005
    26	1.67672e-007	6.01406e-005	6.03083e-005
    27	1.67983e-007	6.01406e-005	6.03086e-005
    28	1.67889e-007	6.01406e-005	6.03085e-005
    29	1.67437e-007	6.01406e-005	6.0308e-005
    30	1.66661e-007	6.01406e-005	6.03072e-005
    31	1.65574e-007	6.01406e-005	6.03061e-005
    32	1.67828e-007	6.01406e-005	6.03084e-005
    33	1.70692e-007	6.01406e-005	6.03113e-005
    34	1.73765e-007	6.014e-005	6.03137e-005
    35	1.71281e-007	6.014e-005	6.03113e-005
    36	1.74451e-007	6.01406e-005	6.0315e-005
    37	1.74371e-007	6.01406e-005	6.0315e-005
    38	1.74291e-007	6.01406e-005	6.03149e-005
    39	1.74213e-007	6.01406e-005	6.03148e-005
    40	1.74136e-007	6.01406e-005	6.03147e-005
    41	1.74059e-007	6.01406e-005	6.03146e-005
    42	1.73985e-007	6.01405e-005	6.03145e-005
    43	1.73911e-007	6.01405e-005	6.03144e-005
    44	1.73838e-007	6.01405e-005	6.03144e-005
    45	1.73766e-007	6.01405e-005	6.03143e-005
    46	1.73695e-007	6.01405e-005	6.03142e-005
    47	1.73625e-007	6.01405e-005	6.03141e-005
    48	1.73552e-007	6.01405e-005	6.0314e-005
    49	1.73484e-007	6.01405e-005	6.0314e-005
    50	1.73417e-007	6.01405e-005	6.03139e-005
    51	1.73351e-007	6.01405e-005	6.03138e-005
    52	1.73286e-007	6.01405e-005	6.03138e-005
    53	1.73222e-007	6.01405e-005	6.03137e-005
    54	1.73158e-007	6.01404e-005	6.03136e-005
    55	1.73103e-007	6.01404e-005	6.03135e-005
    56	1.73041e-007	6.01404e-005	6.03135e-005
    57	1.72981e-007	6.01404e-005	6.03134e-005
    58	1.72921e-007	6.01404e-005	6.03133e-005
    59	1.72862e-007	6.01404e-005	6.03133e-005
    60	1.72805e-007	6.01404e-005	6.03132e-005
    61	1.72747e-007	6.01404e-005	6.03132e-005
    62	1.72691e-007	6.01404e-005	6.03131e-005
    63	1.72635e-007	6.01404e-005	6.0313e-005
    64	1.72579e-007	6.01404e-005	6.0313e-005
    65	1.72525e-007	6.01404e-005	6.03129e-005
    66	1.72471e-007	6.01404e-005	6.03128e-005
    67	1.70891e-007	6.01446e-005	6.03155e-005
    68	1.75983e-007	6.01398e-005	6.03158e-005
    69	1.72326e-007	6.01404e-005	6.03127e-005
    70	1.73072e-007	6.01402e-005	6.03132e-005
    71	1.76731e-007	6.014e-005	6.03167e-005
    72	1.72158e-007	6.01403e-005	6.03125e-005
    73	1.72148e-007	6.01403e-005	6.03125e-005
    74	1.76566e-007	6.01396e-005	6.03162e-005
    75	1.72053e-007	6.01403e-005	6.03124e-005
    76	1.71973e-007	6.01403e-005	6.03123e-005
    77	1.64438e-007	6.01413e-005	6.03057e-005
    78	1.71872e-007	6.01403e-005	6.03122e-005
    79	1.75369e-007	6.014e-005	6.03153e-005
    80	1.59916e-007	6.01456e-005	6.03055e-005
    81	1.66715e-007	6.0142e-005	6.03087e-005
    82	1.71699e-007	6.01403e-005	6.0312e-005
    83	1.71669e-007	6.01403e-005	6.0312e-005
    84	1.71634e-007	6.01403e-005	6.03119e-005
    85	1.71613e-007	6.01403e-005	6.03119e-005
    86	1.71547e-007	6.01403e-005	6.03118e-005
    87	1.71502e-007	6.01403e-005	6.03118e-005
    88	1.71451e-007	6.01403e-005	6.03117e-005
    89	1.71404e-007	6.01403e-005	6.03117e-005
    90	1.7657e-007	6.01395e-005	6.03161e-005
    91	1.66018e-007	6.01438e-005	6.03098e-005
    92	1.67467e-007	6.01426e-005	6.03101e-005
    93	1.71248e-007	6.01402e-005	6.03115e-005
    94	1.71497e-007	6.01402e-005	6.03117e-005
    95	1.64862e-007	6.01411e-005	6.0306e-005
    96	1.70478e-007	6.01448e-005	6.03153e-005
    97	1.7114e-007	6.01402e-005	6.03114e-005
    98	1.71101e-007	6.01402e-005	6.03113e-005
    99	1.68031e-007	6.01407e-005	6.03087e-005
   100	1.64969e-007	6.01401e-005	6.03051e-005
   101	1.66874e-007	6.01408e-005	6.03077e-005

Measurement: vth
  step	v(n004)	at
     1	8.84522	2.05954e-005
     2	8.84358	2.05953e-005
     3	8.8432	2.05953e-005
     4	8.84748	2.05913e-005
     5	8.84718	2.05911e-005
     6	8.84689	2.05908e-005
     7	8.84662	2.05905e-005
     8	8.84636	2.05902e-005
     9	8.84521	2.05909e-005
    10	8.84496	2.05906e-005
    11	8.84472	2.05903e-005
    12	8.84449	2.05899e-005
    13	8.84428	2.05896e-005
    14	8.84408	2.05893e-005
    15	8.84389	2.05889e-005
    16	8.84371	2.05886e-005
    17	8.84355	2.05882e-005
    18	8.84339	2.05879e-005
    19	8.84324	2.05875e-005
    20	8.8431	2.05872e-005
    21	8.84297	2.05868e-005
    22	8.84332	2.05857e-005
    23	8.84339	2.05852e-005
    24	8.84273	2.05855e-005
    25	8.8424	2.05854e-005
    26	8.8423	2.05851e-005
    27	8.84221	2.05848e-005
    28	8.84215	2.05845e-005
    29	8.84209	2.05841e-005
    30	8.84206	2.05838e-005
    31	8.84218	2.05833e-005
    32	8.84217	2.0583e-005
    33	8.84217	2.05826e-005
    34	8.84218	2.05822e-005
    35	8.84221	2.05818e-005
    36	8.84225	2.05814e-005
    37	8.8423	2.0581e-005
    38	8.84236	2.05806e-005
    39	8.84243	2.05801e-005
    40	8.84251	2.05797e-005
    41	8.8426	2.05793e-005
    42	8.8427	2.05788e-005
    43	8.84282	2.05783e-005
    44	8.84294	2.05778e-005
    45	8.84308	2.05774e-005
    46	8.84322	2.05769e-005
    47	8.84338	2.05763e-005
    48	8.84282	2.05759e-005
    49	8.84247	2.05758e-005
    50	8.84212	2.05757e-005
    51	8.84178	2.05756e-005
    52	8.84145	2.05755e-005
    53	8.84113	2.05754e-005
    54	8.84081	2.05753e-005
    55	8.84209	2.05744e-005
    56	8.84189	2.05742e-005
    57	8.84169	2.0574e-005
    58	8.84149	2.05739e-005
    59	8.84128	2.05737e-005
    60	8.84108	2.05736e-005
    61	8.84087	2.05734e-005
    62	8.84066	2.05733e-005
    63	8.84046	2.05732e-005
    64	8.84025	2.0573e-005
    65	8.84004	2.05729e-005
    66	8.83983	2.05728e-005
    67	8.83862	2.05742e-005
    68	8.83874	2.05741e-005
    69	8.84033	2.05717e-005
    70	8.83896	2.05734e-005
    71	8.83722	2.05734e-005
    72	8.8383	2.05722e-005
    73	8.84123	2.05705e-005
    74	8.83798	2.0573e-005
    75	8.84111	2.05701e-005
    76	8.83857	2.05711e-005
    77	8.83657	2.05724e-005
    78	8.83683	2.05718e-005
    79	8.83582	2.05728e-005
    80	8.83619	2.05721e-005
    81	8.8363	2.05715e-005
    82	8.8375	2.05704e-005
    83	8.83845	2.05695e-005
    84	8.83801	2.05695e-005
    85	8.83986	2.05687e-005
    86	8.83752	2.05693e-005
    87	8.8381	2.05688e-005
    88	8.83728	2.05692e-005
    89	8.83626	2.05696e-005
    90	8.83541	2.05701e-005
    91	8.83516	2.05703e-005
    92	8.83555	2.05703e-005
    93	8.83626	2.05688e-005
    94	8.83714	2.05691e-005
    95	8.83611	2.05694e-005
    96	8.83616	2.05693e-005
    97	8.83889	2.05668e-005
    98	8.83903	2.05664e-005
    99	8.83435	2.05696e-005
   100	8.83736	2.05675e-005
   101	8.83622	2.05678e-005


Date: Mon Mar 21 20:43:36 2022
Total elapsed time: 1.236 seconds.

tnom = 27
temp = 27
method = modified trap
totiter = 2227
traniter = 2204
tranpoints = 1096
accept = 1084
rejected = 12
matrix size = 11
fillins = 0
solver = Normal
Matrix Compiler1: 674 bytes object code size  0.1/0.1/[0.0]
Matrix Compiler2: off  [0.1]/0.1/0.1

