Circuit: * C:\Users\user\Documents\LTspiceXVII\file\Montecarlo\monte_SiC.asc

Direct Newton iteration for .op point succeeded.
.step tol1=0
.step tol1=0.01
.step tol1=0.02
.step tol1=0.03
.step tol1=0.04
.step tol1=0.05
.step tol1=0.06
.step tol1=0.07
.step tol1=0.08
.step tol1=0.09
.step tol1=0.1
.step tol1=0.11
.step tol1=0.12
.step tol1=0.13
.step tol1=0.14
.step tol1=0.15
.step tol1=0.16
.step tol1=0.17
.step tol1=0.18
.step tol1=0.19
.step tol1=0.2
.step tol1=0.21
.step tol1=0.22
.step tol1=0.23
.step tol1=0.24
.step tol1=0.25
.step tol1=0.26
.step tol1=0.27
.step tol1=0.28
.step tol1=0.29
.step tol1=0.3
.step tol1=0.31
.step tol1=0.32
.step tol1=0.33
.step tol1=0.34
.step tol1=0.35
.step tol1=0.36
.step tol1=0.37
.step tol1=0.38
.step tol1=0.39
.step tol1=0.4
.step tol1=0.41
.step tol1=0.42
.step tol1=0.43
.step tol1=0.44
.step tol1=0.45
.step tol1=0.46
.step tol1=0.47
.step tol1=0.48
.step tol1=0.49
.step tol1=0.5
.step tol1=0.51
.step tol1=0.52
.step tol1=0.53
.step tol1=0.54
.step tol1=0.55
.step tol1=0.56
.step tol1=0.57
.step tol1=0.58
.step tol1=0.59
.step tol1=0.6
.step tol1=0.61
.step tol1=0.62
.step tol1=0.63
.step tol1=0.64
.step tol1=0.65
.step tol1=0.66
.step tol1=0.67
.step tol1=0.68
.step tol1=0.69
.step tol1=0.7
.step tol1=0.71
.step tol1=0.72
.step tol1=0.73
.step tol1=0.74
.step tol1=0.75
.step tol1=0.76
.step tol1=0.77
.step tol1=0.78
.step tol1=0.79
.step tol1=0.8
.step tol1=0.81
.step tol1=0.82
.step tol1=0.83
.step tol1=0.84
.step tol1=0.85
.step tol1=0.86
.step tol1=0.87
.step tol1=0.88
.step tol1=0.89
.step tol1=0.9
.step tol1=0.91
.step tol1=0.92
.step tol1=0.93
.step tol1=0.94
.step tol1=0.95
.step tol1=0.96
.step tol1=0.97
.step tol1=0.98
.step tol1=0.99
.step tol1=1


Measurement: imax
  step	MAX(-i(v1))	FROM	TO
     1	4.64401	0	0.0001
     2	4.64402	0	0.0001
     3	4.64401	0	0.0001
     4	4.64401	0	0.0001
     5	4.64402	0	0.0001
     6	4.64401	0	0.0001
     7	4.64401	0	0.0001
     8	4.64401	0	0.0001
     9	4.64401	0	0.0001
    10	4.64401	0	0.0001
    11	4.64401	0	0.0001
    12	4.64401	0	0.0001
    13	4.64401	0	0.0001
    14	4.64401	0	0.0001
    15	4.64401	0	0.0001
    16	4.64401	0	0.0001
    17	4.64401	0	0.0001
    18	4.64401	0	0.0001
    19	4.64401	0	0.0001
    20	4.64401	0	0.0001
    21	4.64401	0	0.0001
    22	4.64401	0	0.0001
    23	4.64401	0	0.0001
    24	4.64401	0	0.0001
    25	4.64401	0	0.0001
    26	4.64401	0	0.0001
    27	4.64401	0	0.0001
    28	4.64401	0	0.0001
    29	4.64401	0	0.0001
    30	4.64401	0	0.0001
    31	4.64401	0	0.0001
    32	4.64401	0	0.0001
    33	4.64401	0	0.0001
    34	4.64401	0	0.0001
    35	4.64401	0	0.0001
    36	4.64401	0	0.0001
    37	4.64401	0	0.0001
    38	4.64401	0	0.0001
    39	4.64401	0	0.0001
    40	4.64401	0	0.0001
    41	4.64401	0	0.0001
    42	4.64402	0	0.0001
    43	4.64402	0	0.0001
    44	4.64402	0	0.0001
    45	4.64401	0	0.0001
    46	4.64401	0	0.0001
    47	4.64403	0	0.0001
    48	4.64402	0	0.0001
    49	4.64401	0	0.0001
    50	4.64402	0	0.0001
    51	4.64401	0	0.0001
    52	4.64403	0	0.0001
    53	4.64401	0	0.0001
    54	4.64401	0	0.0001
    55	4.64401	0	0.0001
    56	4.64401	0	0.0001
    57	4.64404	0	0.0001
    58	4.64402	0	0.0001
    59	4.64401	0	0.0001
    60	4.64404	0	0.0001
    61	4.64401	0	0.0001
    62	4.64401	0	0.0001
    63	4.64401	0	0.0001
    64	4.64401	0	0.0001
    65	4.64401	0	0.0001
    66	4.64401	0	0.0001
    67	4.64401	0	0.0001
    68	4.64401	0	0.0001
    69	4.64401	0	0.0001
    70	4.64401	0	0.0001
    71	4.64401	0	0.0001
    72	4.64405	0	0.0001
    73	4.64401	0	0.0001
    74	4.64401	0	0.0001
    75	4.64401	0	0.0001
    76	4.64401	0	0.0001
    77	4.64401	0	0.0001
    78	4.64401	0	0.0001
    79	4.64401	0	0.0001
    80	4.64401	0	0.0001
    81	4.64401	0	0.0001
    82	4.64404	0	0.0001
    83	4.64402	0	0.0001
    84	4.64401	0	0.0001
    85	4.64403	0	0.0001
    86	4.64401	0	0.0001
    87	4.64401	0	0.0001
    88	4.64401	0	0.0001
    89	4.64405	0	0.0001
    90	4.64401	0	0.0001
    91	4.64401	0	0.0001
    92	4.64401	0	0.0001
    93	4.64401	0	0.0001
    94	4.64401	0	0.0001
    95	4.64401	0	0.0001
    96	4.64404	0	0.0001
    97	4.64401	0	0.0001
    98	4.64402	0	0.0001
    99	4.64401	0	0.0001
   100	4.64401	0	0.0001
   101	4.64401	0	0.0001

Measurement: tr1
  step	tr1	FROM	TO
     1	7.66013e-007	2.02475e-005	2.10135e-005
     2	7.65247e-007	2.02491e-005	2.10143e-005
     3	7.71211e-007	2.02456e-005	2.10168e-005
     4	7.72774e-007	2.02459e-005	2.10187e-005
     5	7.70523e-007	2.02493e-005	2.10198e-005
     6	7.72464e-007	2.02493e-005	2.10217e-005
     7	7.7438e-007	2.02492e-005	2.10236e-005
     8	7.76715e-007	2.02491e-005	2.10259e-005
     9	7.78585e-007	2.02491e-005	2.10277e-005
    10	7.80439e-007	2.0249e-005	2.10294e-005
    11	7.82278e-007	2.02489e-005	2.10312e-005
    12	7.84104e-007	2.02488e-005	2.10329e-005
    13	7.85805e-007	2.02487e-005	2.10345e-005
    14	7.87557e-007	2.02486e-005	2.10361e-005
    15	7.89305e-007	2.02485e-005	2.10378e-005
    16	7.91051e-007	2.02483e-005	2.10394e-005
    17	7.92801e-007	2.02482e-005	2.1041e-005
    18	7.94559e-007	2.0248e-005	2.10426e-005
    19	7.96327e-007	2.02478e-005	2.10441e-005
    20	7.98112e-007	2.02476e-005	2.10457e-005
    21	8.0007e-007	2.02474e-005	2.10475e-005
    22	8.01748e-007	2.02471e-005	2.10489e-005
    23	8.03555e-007	2.02463e-005	2.10498e-005
    24	8.07805e-007	2.02444e-005	2.10522e-005
    25	8.08835e-007	2.02452e-005	2.1054e-005
    26	8.09974e-007	2.02459e-005	2.10558e-005
    27	8.10301e-007	2.02466e-005	2.10569e-005
    28	8.11333e-007	2.02472e-005	2.10585e-005
    29	8.12909e-007	2.02477e-005	2.10606e-005
    30	8.14213e-007	2.02482e-005	2.10624e-005
    31	8.15727e-007	2.02487e-005	2.10644e-005
    32	8.17235e-007	2.02491e-005	2.10664e-005
    33	8.17799e-007	2.02495e-005	2.10673e-005
    34	8.19158e-007	2.02499e-005	2.1069e-005
    35	8.20556e-007	2.02502e-005	2.10708e-005
    36	8.21988e-007	2.02506e-005	2.10726e-005
    37	8.23452e-007	2.02509e-005	2.10743e-005
    38	8.24945e-007	2.02512e-005	2.10761e-005
    39	8.26465e-007	2.02515e-005	2.10779e-005
    40	8.28011e-007	2.02517e-005	2.10797e-005
    41	8.29579e-007	2.0252e-005	2.10816e-005
    42	8.31167e-007	2.02522e-005	2.10834e-005
    43	8.32773e-007	2.02525e-005	2.10852e-005
    44	8.34393e-007	2.02527e-005	2.10871e-005
    45	8.3602e-007	2.02529e-005	2.10889e-005
    46	8.37627e-007	2.02531e-005	2.10908e-005
    47	8.39197e-007	2.02534e-005	2.10926e-005
    48	8.41228e-007	2.02537e-005	2.10949e-005
    49	8.42921e-007	2.0254e-005	2.10969e-005
    50	8.45781e-007	2.02532e-005	2.10989e-005
    51	8.52015e-007	2.02502e-005	2.11022e-005
    52	8.48635e-007	2.02537e-005	2.11024e-005
    53	8.52803e-007	2.02527e-005	2.11055e-005
    54	8.50802e-007	2.02552e-005	2.1106e-005
    55	8.51984e-007	2.02559e-005	2.11079e-005
    56	8.56335e-007	2.0254e-005	2.11103e-005
    57	8.55953e-007	2.0256e-005	2.11119e-005
    58	8.60147e-007	2.02541e-005	2.11142e-005
    59	8.62395e-007	2.02539e-005	2.11163e-005
    60	8.62524e-007	2.02557e-005	2.11182e-005
    61	8.64862e-007	2.02553e-005	2.11202e-005
    62	8.71307e-007	2.02507e-005	2.1122e-005
    63	8.70375e-007	2.02524e-005	2.11228e-005
    64	8.68632e-007	2.02556e-005	2.11242e-005
    65	8.77321e-007	2.02504e-005	2.11277e-005
    66	8.79701e-007	2.02497e-005	2.11294e-005
    67	8.82615e-007	2.02489e-005	2.11315e-005
    68	8.85239e-007	2.02479e-005	2.11331e-005
    69	8.83885e-007	2.02504e-005	2.11342e-005
    70	8.83404e-007	2.02516e-005	2.1135e-005
    71	8.81415e-007	2.02565e-005	2.11379e-005
    72	8.85258e-007	2.02541e-005	2.11393e-005
    73	8.87944e-007	2.0252e-005	2.11399e-005
    74	8.95182e-007	2.02483e-005	2.11435e-005
    75	8.95602e-007	2.02497e-005	2.11453e-005
    76	8.95556e-007	2.02512e-005	2.11467e-005
    77	8.96235e-007	2.02523e-005	2.11486e-005
    78	8.97173e-007	2.02533e-005	2.11504e-005
    79	8.98302e-007	2.0254e-005	2.11523e-005
    80	8.99563e-007	2.02546e-005	2.11542e-005
    81	9.00912e-007	2.02552e-005	2.11561e-005
    82	9.00871e-007	2.02573e-005	2.11582e-005
    83	9.03118e-007	2.02567e-005	2.11598e-005
    84	9.05979e-007	2.02549e-005	2.11609e-005
    85	9.06061e-007	2.02572e-005	2.11633e-005
    86	9.11475e-007	2.0252e-005	2.11635e-005
    87	9.15438e-007	2.02496e-005	2.1165e-005
    88	9.15622e-007	2.02532e-005	2.11688e-005
    89	9.15237e-007	2.02561e-005	2.11713e-005
    90	9.13798e-007	2.02588e-005	2.11726e-005
    91	9.20915e-007	2.02535e-005	2.11744e-005
    92	9.22144e-007	2.02514e-005	2.11735e-005
    93	9.21099e-007	2.0254e-005	2.11751e-005
    94	9.21646e-007	2.02555e-005	2.11772e-005
    95	9.22954e-007	2.02563e-005	2.11793e-005
    96	9.23116e-007	2.02587e-005	2.11818e-005
    97	9.31148e-007	2.02542e-005	2.11853e-005
    98	9.2649e-007	2.02591e-005	2.11856e-005
    99	9.36773e-007	2.02506e-005	2.11873e-005
   100	9.3262e-007	2.02554e-005	2.1188e-005
   101	9.36079e-007	2.02544e-005	2.11905e-005

Measurement: tr2
  step	tr2	FROM	TO
     1	1.80141e-007	6.0141e-005	6.03212e-005
     2	1.79836e-007	6.01411e-005	6.0321e-005
     3	1.80316e-007	6.01412e-005	6.03215e-005
     4	1.79507e-007	6.01413e-005	6.03208e-005
     5	1.80038e-007	6.01414e-005	6.03214e-005
     6	1.78841e-007	6.01415e-005	6.03203e-005
     7	1.7746e-007	6.01416e-005	6.0319e-005
     8	1.75959e-007	6.01417e-005	6.03176e-005
     9	1.74213e-007	6.01418e-005	6.0316e-005
    10	1.72287e-007	6.01418e-005	6.03141e-005
    11	1.70186e-007	6.01419e-005	6.03121e-005
    12	1.74217e-007	6.0142e-005	6.03162e-005
    13	1.70425e-007	6.01421e-005	6.03125e-005
    14	1.72038e-007	6.01422e-005	6.03142e-005
    15	1.73666e-007	6.01423e-005	6.03159e-005
    16	1.75302e-007	6.01424e-005	6.03177e-005
    17	1.73343e-007	6.01425e-005	6.03158e-005
    18	1.78445e-007	6.01425e-005	6.0321e-005
    19	1.78108e-007	6.01426e-005	6.03207e-005
    20	1.84322e-007	6.01427e-005	6.0327e-005
    21	1.82413e-007	6.01428e-005	6.03252e-005
    22	1.85289e-007	6.01429e-005	6.03282e-005
    23	1.79079e-007	6.01424e-005	6.03215e-005
    24	1.74075e-007	6.01431e-005	6.03171e-005
    25	1.85758e-007	6.01432e-005	6.03289e-005
    26	1.86223e-007	6.01432e-005	6.03295e-005
    27	1.86412e-007	6.01433e-005	6.03297e-005
    28	1.85675e-007	6.01434e-005	6.03291e-005
    29	1.84877e-007	6.01435e-005	6.03284e-005
    30	1.84003e-007	6.01436e-005	6.03276e-005
    31	1.83071e-007	6.01437e-005	6.03268e-005
    32	1.82078e-007	6.01438e-005	6.03259e-005
    33	1.8104e-007	6.01439e-005	6.03249e-005
    34	1.7993e-007	6.0144e-005	6.03239e-005
    35	1.78765e-007	6.0144e-005	6.03228e-005
    36	1.77547e-007	6.01441e-005	6.03217e-005
    37	1.76279e-007	6.01442e-005	6.03205e-005
    38	1.76324e-007	6.01443e-005	6.03206e-005
    39	1.79486e-007	6.01444e-005	6.03239e-005
    40	1.80691e-007	6.01445e-005	6.03252e-005
    41	1.81897e-007	6.01446e-005	6.03265e-005
    42	1.83102e-007	6.01447e-005	6.03278e-005
    43	1.84305e-007	6.01447e-005	6.03291e-005
    44	1.86646e-007	6.01432e-005	6.03299e-005
    45	1.87112e-007	6.01433e-005	6.03304e-005
    46	1.75991e-007	6.01486e-005	6.03246e-005
    47	1.86994e-007	6.01445e-005	6.03314e-005
    48	1.85872e-007	6.01435e-005	6.03293e-005
    49	1.88371e-007	6.01447e-005	6.03331e-005
    50	1.85315e-007	6.01443e-005	6.03296e-005
    51	1.85782e-007	6.01455e-005	6.03312e-005
    52	1.91079e-007	6.01451e-005	6.03362e-005
    53	1.91923e-007	6.01456e-005	6.03376e-005
    54	1.90074e-007	6.0145e-005	6.03351e-005
    55	1.74804e-007	6.0151e-005	6.03258e-005
    56	1.89395e-007	6.01492e-005	6.03386e-005
    57	1.78757e-007	6.01493e-005	6.0328e-005
    58	1.92562e-007	6.01448e-005	6.03374e-005
    59	1.85103e-007	6.01444e-005	6.03295e-005
    60	1.93491e-007	6.01455e-005	6.0339e-005
    61	1.85652e-007	6.01465e-005	6.03322e-005
    62	1.89954e-007	6.01453e-005	6.03353e-005
    63	1.92826e-007	6.01451e-005	6.0338e-005
    64	1.93488e-007	6.01466e-005	6.03401e-005
    65	1.91126e-007	6.01467e-005	6.03378e-005
    66	1.91627e-007	6.01468e-005	6.03384e-005
    67	1.92119e-007	6.01469e-005	6.0339e-005
    68	1.92606e-007	6.0147e-005	6.03396e-005
    69	1.93073e-007	6.0147e-005	6.03401e-005
    70	1.9619e-007	6.0146e-005	6.03422e-005
    71	1.97311e-007	6.01464e-005	6.03437e-005
    72	1.94373e-007	6.01456e-005	6.034e-005
    73	1.985e-007	6.01462e-005	6.03447e-005
    74	1.95742e-007	6.01475e-005	6.03432e-005
    75	1.96133e-007	6.01476e-005	6.03437e-005
    76	1.96525e-007	6.01477e-005	6.03442e-005
    77	1.96909e-007	6.01477e-005	6.03446e-005
    78	1.97288e-007	6.01478e-005	6.03451e-005
    79	1.9766e-007	6.01479e-005	6.03456e-005
    80	1.98026e-007	6.0148e-005	6.0346e-005
    81	1.92244e-007	6.01459e-005	6.03381e-005
    82	1.96396e-007	6.0146e-005	6.03424e-005
    83	1.97177e-007	6.01469e-005	6.03441e-005
    84	1.99545e-007	6.01483e-005	6.03479e-005
    85	2.00362e-007	6.01465e-005	6.03469e-005
    86	2.00248e-007	6.01485e-005	6.03488e-005
    87	2.00587e-007	6.01486e-005	6.03492e-005
    88	2.01972e-007	6.01477e-005	6.03497e-005
    89	1.97745e-007	6.01462e-005	6.0344e-005
    90	2.01578e-007	6.01478e-005	6.03493e-005
    91	2.02215e-007	6.0148e-005	6.03503e-005
    92	2.01513e-007	6.0149e-005	6.03506e-005
    93	2.02242e-007	6.01491e-005	6.03514e-005
    94	2.02666e-007	6.01492e-005	6.03519e-005
    95	2.04006e-007	6.01471e-005	6.03511e-005
    96	2.02515e-007	6.01469e-005	6.03494e-005
    97	1.95333e-007	6.01485e-005	6.03438e-005
    98	2.04667e-007	6.01473e-005	6.03519e-005
    99	2.03486e-007	6.01497e-005	6.03531e-005
   100	2.03714e-007	6.01497e-005	6.03534e-005
   101	2.0386e-007	6.01498e-005	6.03537e-005

Measurement: vth
  step	v(n004)	at
     1	8.84522	2.05954e-005
     2	8.84741	2.05939e-005
     3	8.84484	2.05968e-005
     4	8.84487	2.05975e-005
     5	8.84752	2.05957e-005
     6	8.84732	2.05965e-005
     7	8.84713	2.05974e-005
     8	8.84693	2.05982e-005
     9	8.84677	2.0599e-005
    10	8.84662	2.05997e-005
    11	8.84649	2.06005e-005
    12	8.84637	2.06012e-005
    13	8.84561	2.06027e-005
    14	8.84553	2.06034e-005
    15	8.84546	2.06041e-005
    16	8.84541	2.06047e-005
    17	8.84537	2.06054e-005
    18	8.84534	2.0606e-005
    19	8.84532	2.06067e-005
    20	8.84531	2.06073e-005
    21	8.84532	2.06079e-005
    22	8.84533	2.06085e-005
    23	8.84476	2.06093e-005
    24	8.84563	2.06091e-005
    25	8.84574	2.06097e-005
    26	8.8459	2.06102e-005
    27	8.84548	2.06114e-005
    28	8.8455	2.06121e-005
    29	8.84553	2.06128e-005
    30	8.84558	2.06134e-005
    31	8.84563	2.0614e-005
    32	8.8457	2.06146e-005
    33	8.84623	2.06148e-005
    34	8.8463	2.06153e-005
    35	8.84639	2.06159e-005
    36	8.84649	2.06165e-005
    37	8.8466	2.0617e-005
    38	8.84672	2.06176e-005
    39	8.84685	2.06181e-005
    40	8.847	2.06186e-005
    41	8.84715	2.06191e-005
    42	8.84732	2.06196e-005
    43	8.8475	2.062e-005
    44	8.8477	2.06205e-005
    45	8.84791	2.06209e-005
    46	8.84809	2.06213e-005
    47	8.84821	2.06219e-005
    48	8.84765	2.06232e-005
    49	8.84772	2.06238e-005
    50	8.84758	2.06245e-005
    51	8.84652	2.06259e-005
    52	8.84803	2.06253e-005
    53	8.84704	2.06269e-005
    54	8.84995	2.06247e-005
    55	8.84855	2.06269e-005
    56	8.84792	2.0628e-005
    57	8.84845	2.06283e-005
    58	8.84787	2.06293e-005
    59	8.84768	2.06301e-005
    60	8.84791	2.06307e-005
    61	8.84777	2.06314e-005
    62	8.8473	2.06319e-005
    63	8.84839	2.06316e-005
    64	8.84989	2.06312e-005
    65	8.84693	2.06344e-005
    66	8.84696	2.06349e-005
    67	8.84691	2.06354e-005
    68	8.84692	2.0636e-005
    69	8.84724	2.06364e-005
    70	8.84804	2.06364e-005
    71	8.84954	2.06361e-005
    72	8.84986	2.06362e-005
    73	8.84835	2.0638e-005
    74	8.84701	2.06397e-005
    75	8.84718	2.06403e-005
    76	8.84731	2.0641e-005
    77	8.84735	2.06417e-005
    78	8.84739	2.06424e-005
    79	8.84745	2.06431e-005
    80	8.84754	2.06436e-005
    81	8.84769	2.06442e-005
    82	8.84796	2.06447e-005
    83	8.84788	2.06454e-005
    84	8.84763	2.06461e-005
    85	8.84795	2.06466e-005
    86	8.84757	2.06472e-005
    87	8.84754	2.06475e-005
    88	8.84959	2.06465e-005
    89	8.84984	2.06474e-005
    90	8.84902	2.06489e-005
    91	8.84985	2.06481e-005
    92	8.84769	2.06507e-005
    93	8.84783	2.06515e-005
    94	8.84794	2.06521e-005
    95	8.84801	2.06527e-005
    96	8.84819	2.06535e-005
    97	8.85055	2.06513e-005
    98	8.84832	2.06546e-005
    99	8.84821	2.06544e-005
   100	8.84819	2.06556e-005
   101	8.84819	2.06562e-005


Date: Mon Mar 21 20:41:31 2022
Total elapsed time: 1.086 seconds.

tnom = 27
temp = 27
method = modified trap
totiter = 2253
traniter = 2230
tranpoints = 1104
accept = 1088
rejected = 16
matrix size = 11
fillins = 0
solver = Normal
Matrix Compiler1: 674 bytes object code size  0.1/0.1/[0.1]
Matrix Compiler2: off  [0.0]/0.1/0.1

