Circuit: * C:\Users\user\Documents\LTspiceXVII\file\Montecarlo\monte_SiC.asc

Direct Newton iteration for .op point succeeded.
.step tol1=0
.step tol1=0.01
.step tol1=0.02
.step tol1=0.03
.step tol1=0.04
.step tol1=0.05
.step tol1=0.06
.step tol1=0.07
.step tol1=0.08
.step tol1=0.09
.step tol1=0.1
.step tol1=0.11
.step tol1=0.12
.step tol1=0.13
.step tol1=0.14
.step tol1=0.15
.step tol1=0.16
.step tol1=0.17
.step tol1=0.18
.step tol1=0.19
.step tol1=0.2
.step tol1=0.21
.step tol1=0.22
.step tol1=0.23
.step tol1=0.24
.step tol1=0.25
.step tol1=0.26
.step tol1=0.27
.step tol1=0.28
.step tol1=0.29
.step tol1=0.3
.step tol1=0.31
.step tol1=0.32
.step tol1=0.33
.step tol1=0.34
.step tol1=0.35
.step tol1=0.36
.step tol1=0.37
.step tol1=0.38
.step tol1=0.39
.step tol1=0.4
.step tol1=0.41
.step tol1=0.42
.step tol1=0.43
.step tol1=0.44
.step tol1=0.45
.step tol1=0.46
.step tol1=0.47
.step tol1=0.48
.step tol1=0.49
.step tol1=0.5
.step tol1=0.51
.step tol1=0.52
.step tol1=0.53
.step tol1=0.54
.step tol1=0.55
.step tol1=0.56
.step tol1=0.57
.step tol1=0.58
.step tol1=0.59
.step tol1=0.6
.step tol1=0.61
.step tol1=0.62
.step tol1=0.63
.step tol1=0.64
.step tol1=0.65
.step tol1=0.66
.step tol1=0.67
.step tol1=0.68
.step tol1=0.69
.step tol1=0.7
.step tol1=0.71
.step tol1=0.72
.step tol1=0.73
.step tol1=0.74
.step tol1=0.75
.step tol1=0.76
.step tol1=0.77
.step tol1=0.78
.step tol1=0.79
.step tol1=0.8
.step tol1=0.81
.step tol1=0.82
.step tol1=0.83
.step tol1=0.84
.step tol1=0.85
.step tol1=0.86
.step tol1=0.87
.step tol1=0.88
.step tol1=0.89
.step tol1=0.9
.step tol1=0.91
.step tol1=0.92
.step tol1=0.93
.step tol1=0.94
.step tol1=0.95
.step tol1=0.96
.step tol1=0.97
.step tol1=0.98
.step tol1=0.99
.step tol1=1


Measurement: imax
  step	MAX(-i(v1))	FROM	TO
     1	4.64401	0	0.0001
     2	4.64401	0	0.0001
     3	4.64401	0	0.0001
     4	4.64401	0	0.0001
     5	4.64401	0	0.0001
     6	4.64401	0	0.0001
     7	4.64401	0	0.0001
     8	4.64401	0	0.0001
     9	4.64401	0	0.0001
    10	4.64401	0	0.0001
    11	4.64401	0	0.0001
    12	4.64401	0	0.0001
    13	4.64401	0	0.0001
    14	4.64401	0	0.0001
    15	4.64401	0	0.0001
    16	4.64401	0	0.0001
    17	4.64401	0	0.0001
    18	4.64401	0	0.0001
    19	4.64401	0	0.0001
    20	4.64401	0	0.0001
    21	4.64401	0	0.0001
    22	4.64401	0	0.0001
    23	4.64401	0	0.0001
    24	4.64401	0	0.0001
    25	4.64401	0	0.0001
    26	4.64401	0	0.0001
    27	4.64401	0	0.0001
    28	4.64401	0	0.0001
    29	4.64401	0	0.0001
    30	4.64401	0	0.0001
    31	4.64401	0	0.0001
    32	4.64401	0	0.0001
    33	4.64401	0	0.0001
    34	4.64401	0	0.0001
    35	4.64401	0	0.0001
    36	4.64401	0	0.0001
    37	4.64401	0	0.0001
    38	4.64401	0	0.0001
    39	4.64401	0	0.0001
    40	4.64401	0	0.0001
    41	4.64401	0	0.0001
    42	4.64401	0	0.0001
    43	4.64401	0	0.0001
    44	4.64401	0	0.0001
    45	4.64401	0	0.0001
    46	4.64401	0	0.0001
    47	4.64404	0	0.0001
    48	4.64405	0	0.0001
    49	4.64405	0	0.0001
    50	4.64405	0	0.0001
    51	4.64403	0	0.0001
    52	4.64401	0	0.0001
    53	4.64404	0	0.0001
    54	4.64403	0	0.0001
    55	4.64401	0	0.0001
    56	4.64401	0	0.0001
    57	4.64401	0	0.0001
    58	4.64401	0	0.0001
    59	4.64401	0	0.0001
    60	4.64401	0	0.0001
    61	4.64401	0	0.0001
    62	4.64401	0	0.0001
    63	4.64401	0	0.0001
    64	4.64401	0	0.0001
    65	4.64401	0	0.0001
    66	4.64401	0	0.0001
    67	4.64401	0	0.0001
    68	4.64401	0	0.0001
    69	4.64401	0	0.0001
    70	4.64401	0	0.0001
    71	4.64401	0	0.0001
    72	4.64401	0	0.0001
    73	4.64401	0	0.0001
    74	4.64401	0	0.0001
    75	4.64401	0	0.0001
    76	4.64401	0	0.0001
    77	4.64401	0	0.0001
    78	4.64401	0	0.0001
    79	4.64401	0	0.0001
    80	4.64401	0	0.0001
    81	4.64401	0	0.0001
    82	4.64401	0	0.0001
    83	4.64401	0	0.0001
    84	4.64401	0	0.0001
    85	4.64401	0	0.0001
    86	4.64401	0	0.0001
    87	4.64401	0	0.0001
    88	4.64401	0	0.0001
    89	4.64401	0	0.0001
    90	4.64401	0	0.0001
    91	4.64401	0	0.0001
    92	4.64401	0	0.0001
    93	4.64401	0	0.0001
    94	4.64401	0	0.0001
    95	4.64401	0	0.0001
    96	4.64401	0	0.0001
    97	4.64401	0	0.0001
    98	4.64401	0	0.0001
    99	4.64401	0	0.0001
   100	4.64401	0	0.0001
   101	4.64401	0	0.0001

Measurement: tr1
  step	tr1	FROM	TO
     1	7.66013e-007	2.02475e-005	2.10135e-005
     2	7.66079e-007	2.02474e-005	2.10135e-005
     3	7.66146e-007	2.02474e-005	2.10135e-005
     4	7.66212e-007	2.02473e-005	2.10135e-005
     5	7.6628e-007	2.02473e-005	2.10135e-005
     6	7.66348e-007	2.02472e-005	2.10136e-005
     7	7.66416e-007	2.02472e-005	2.10136e-005
     8	7.66486e-007	2.02471e-005	2.10136e-005
     9	7.66555e-007	2.0247e-005	2.10136e-005
    10	7.66626e-007	2.0247e-005	2.10136e-005
    11	7.66697e-007	2.02469e-005	2.10136e-005
    12	7.66769e-007	2.02468e-005	2.10136e-005
    13	7.66842e-007	2.02468e-005	2.10136e-005
    14	7.66916e-007	2.02467e-005	2.10136e-005
    15	7.66991e-007	2.02466e-005	2.10136e-005
    16	7.67066e-007	2.02466e-005	2.10136e-005
    17	7.67143e-007	2.02465e-005	2.10136e-005
    18	7.6722e-007	2.02464e-005	2.10137e-005
    19	7.67299e-007	2.02464e-005	2.10137e-005
    20	7.67378e-007	2.02463e-005	2.10137e-005
    21	7.67579e-007	2.02462e-005	2.10138e-005
    22	7.67661e-007	2.02461e-005	2.10138e-005
    23	7.67744e-007	2.02461e-005	2.10138e-005
    24	7.67829e-007	2.0246e-005	2.10138e-005
    25	7.67914e-007	2.02459e-005	2.10138e-005
    26	7.68001e-007	2.02458e-005	2.10138e-005
    27	7.6809e-007	2.02457e-005	2.10138e-005
    28	7.68179e-007	2.02457e-005	2.10138e-005
    29	7.6827e-007	2.02456e-005	2.10138e-005
    30	7.68242e-007	2.02455e-005	2.10137e-005
    31	7.68335e-007	2.02454e-005	2.10137e-005
    32	7.68431e-007	2.02453e-005	2.10137e-005
    33	7.68527e-007	2.02452e-005	2.10137e-005
    34	7.68626e-007	2.02451e-005	2.10137e-005
    35	7.68726e-007	2.0245e-005	2.10137e-005
    36	7.68828e-007	2.02449e-005	2.10137e-005
    37	7.68931e-007	2.02448e-005	2.10137e-005
    38	7.69036e-007	2.02447e-005	2.10138e-005
    39	7.69143e-007	2.02446e-005	2.10138e-005
    40	7.69252e-007	2.02445e-005	2.10138e-005
    41	7.69363e-007	2.02444e-005	2.10138e-005
    42	7.69477e-007	2.02443e-005	2.10138e-005
    43	7.69593e-007	2.02442e-005	2.10138e-005
    44	7.69651e-007	2.0244e-005	2.10137e-005
    45	7.69781e-007	2.02439e-005	2.10137e-005
    46	7.69911e-007	2.02438e-005	2.10137e-005
    47	7.65326e-007	2.02469e-005	2.10123e-005
    48	7.65765e-007	2.02467e-005	2.10125e-005
    49	7.66189e-007	2.02464e-005	2.10126e-005
    50	7.66606e-007	2.02462e-005	2.10128e-005
    51	7.67006e-007	2.02459e-005	2.10129e-005
    52	7.67385e-007	2.02457e-005	2.10131e-005
    53	7.67793e-007	2.02455e-005	2.10132e-005
    54	7.68152e-007	2.02452e-005	2.10134e-005
    55	7.68506e-007	2.0245e-005	2.10135e-005
    56	7.68848e-007	2.02448e-005	2.10136e-005
    57	7.69169e-007	2.02446e-005	2.10137e-005
    58	7.69471e-007	2.02444e-005	2.10138e-005
    59	7.71291e-007	2.02425e-005	2.10138e-005
    60	7.71093e-007	2.02427e-005	2.10138e-005
    61	7.70899e-007	2.0243e-005	2.10138e-005
    62	7.7071e-007	2.02432e-005	2.10139e-005
    63	7.70524e-007	2.02434e-005	2.10139e-005
    64	7.70341e-007	2.02436e-005	2.10139e-005
    65	7.70161e-007	2.02438e-005	2.10139e-005
    66	7.69981e-007	2.0244e-005	2.10139e-005
    67	7.69872e-007	2.02442e-005	2.10141e-005
    68	7.69717e-007	2.02444e-005	2.10141e-005
    69	7.69569e-007	2.02446e-005	2.10141e-005
    70	7.69429e-007	2.02447e-005	2.10142e-005
    71	7.69293e-007	2.02449e-005	2.10142e-005
    72	7.69162e-007	2.02451e-005	2.10142e-005
    73	7.69036e-007	2.02452e-005	2.10143e-005
    74	7.68915e-007	2.02454e-005	2.10143e-005
    75	7.68798e-007	2.02455e-005	2.10143e-005
    76	7.68806e-007	2.02456e-005	2.10145e-005
    77	7.68698e-007	2.02458e-005	2.10145e-005
    78	7.68592e-007	2.02459e-005	2.10145e-005
    79	7.68491e-007	2.0246e-005	2.10145e-005
    80	7.68393e-007	2.02462e-005	2.10146e-005
    81	7.68178e-007	2.02463e-005	2.10145e-005
    82	7.68086e-007	2.02464e-005	2.10145e-005
    83	7.67998e-007	2.02465e-005	2.10145e-005
    84	7.67913e-007	2.02466e-005	2.10145e-005
    85	7.6783e-007	2.02467e-005	2.10146e-005
    86	7.6775e-007	2.02468e-005	2.10146e-005
    87	7.67672e-007	2.02469e-005	2.10146e-005
    88	7.67596e-007	2.0247e-005	2.10146e-005
    89	7.67523e-007	2.02471e-005	2.10146e-005
    90	7.67452e-007	2.02472e-005	2.10147e-005
    91	7.67382e-007	2.02473e-005	2.10147e-005
    92	7.67314e-007	2.02474e-005	2.10147e-005
    93	7.67248e-007	2.02475e-005	2.10147e-005
    94	7.67183e-007	2.02476e-005	2.10147e-005
    95	7.67119e-007	2.02476e-005	2.10148e-005
    96	7.67056e-007	2.02477e-005	2.10148e-005
    97	7.66995e-007	2.02478e-005	2.10148e-005
    98	7.66934e-007	2.02479e-005	2.10148e-005
    99	7.66874e-007	2.02479e-005	2.10148e-005
   100	7.66815e-007	2.0248e-005	2.10148e-005
   101	7.66757e-007	2.02481e-005	2.10148e-005

Measurement: tr2
  step	tr2	FROM	TO
     1	1.80141e-007	6.0141e-005	6.03212e-005
     2	1.71197e-007	6.0141e-005	6.03122e-005
     3	1.75258e-007	6.01411e-005	6.03163e-005
     4	1.72071e-007	6.01411e-005	6.03131e-005
     5	1.69115e-007	6.01411e-005	6.03102e-005
     6	1.74274e-007	6.01411e-005	6.03153e-005
     7	1.79636e-007	6.01411e-005	6.03207e-005
     8	1.77017e-007	6.01411e-005	6.03181e-005
     9	1.71428e-007	6.01411e-005	6.03125e-005
    10	1.76466e-007	6.01411e-005	6.03175e-005
    11	1.77609e-007	6.01411e-005	6.03187e-005
    12	1.72212e-007	6.01411e-005	6.03133e-005
    13	1.77943e-007	6.01411e-005	6.0319e-005
    14	1.77164e-007	6.01411e-005	6.03182e-005
    15	1.76351e-007	6.01411e-005	6.03174e-005
    16	1.75507e-007	6.01411e-005	6.03166e-005
    17	1.74632e-007	6.01411e-005	6.03157e-005
    18	1.73728e-007	6.01411e-005	6.03148e-005
    19	1.72797e-007	6.01411e-005	6.03139e-005
    20	1.6886e-007	6.01411e-005	6.03099e-005
    21	1.69993e-007	6.01411e-005	6.03111e-005
    22	1.71624e-007	6.01411e-005	6.03127e-005
    23	1.7319e-007	6.01411e-005	6.03143e-005
    24	1.74685e-007	6.01411e-005	6.03157e-005
    25	1.76103e-007	6.01411e-005	6.03172e-005
    26	1.77437e-007	6.01411e-005	6.03185e-005
    27	1.78682e-007	6.01411e-005	6.03197e-005
    28	1.79829e-007	6.01411e-005	6.03209e-005
    29	1.80281e-007	6.01411e-005	6.03213e-005
    30	1.79818e-007	6.01411e-005	6.03209e-005
    31	1.79574e-007	6.01411e-005	6.03206e-005
    32	1.79551e-007	6.01411e-005	6.03206e-005
    33	1.71616e-007	6.01411e-005	6.03127e-005
    34	1.77598e-007	6.01411e-005	6.03187e-005
    35	1.79133e-007	6.01411e-005	6.03202e-005
    36	1.75146e-007	6.01411e-005	6.03162e-005
    37	1.74063e-007	6.01411e-005	6.03151e-005
    38	1.72165e-007	6.01411e-005	6.03132e-005
    39	1.7016e-007	6.01411e-005	6.03112e-005
    40	1.69153e-007	6.01411e-005	6.03102e-005
    41	1.72693e-007	6.01411e-005	6.03138e-005
    42	1.75857e-007	6.01411e-005	6.03169e-005
    43	1.78647e-007	6.01411e-005	6.03197e-005
    44	1.75822e-007	6.01411e-005	6.03169e-005
    45	1.79234e-007	6.01411e-005	6.03203e-005
    46	1.77628e-007	6.01411e-005	6.03187e-005
    47	1.71457e-007	6.01407e-005	6.03122e-005
    48	1.74275e-007	6.0141e-005	6.03153e-005
    49	1.75153e-007	6.01409e-005	6.0316e-005
    50	1.70326e-007	6.01419e-005	6.03122e-005
    51	1.71436e-007	6.01411e-005	6.03126e-005
    52	1.75911e-007	6.01408e-005	6.03167e-005
    53	1.81712e-007	6.01402e-005	6.03219e-005
    54	1.78289e-007	6.01405e-005	6.03188e-005
    55	1.80408e-007	6.01409e-005	6.03213e-005
    56	1.76426e-007	6.01409e-005	6.03173e-005
    57	1.7167e-007	6.01409e-005	6.03126e-005
    58	1.81214e-007	6.01404e-005	6.03216e-005
    59	1.80281e-007	6.01411e-005	6.03214e-005
    60	1.80314e-007	6.01411e-005	6.03214e-005
    61	1.7853e-007	6.01411e-005	6.03196e-005
    62	1.71903e-007	6.01411e-005	6.0313e-005
    63	1.69742e-007	6.01411e-005	6.03108e-005
    64	1.74738e-007	6.01411e-005	6.03158e-005
    65	1.73148e-007	6.01411e-005	6.03142e-005
    66	1.70169e-007	6.01411e-005	6.03113e-005
    67	1.74924e-007	6.01411e-005	6.0316e-005
    68	1.76069e-007	6.01411e-005	6.03172e-005
    69	1.69199e-007	6.01411e-005	6.03103e-005
    70	1.69676e-007	6.01411e-005	6.03108e-005
    71	1.77759e-007	6.01411e-005	6.03189e-005
    72	1.79915e-007	6.01411e-005	6.0321e-005
    73	1.71684e-007	6.01411e-005	6.03128e-005
    74	1.80106e-007	6.01411e-005	6.03212e-005
    75	1.77618e-007	6.01411e-005	6.03187e-005
    76	1.72446e-007	6.01411e-005	6.03135e-005
    77	1.69084e-007	6.01411e-005	6.03102e-005
    78	1.72731e-007	6.01411e-005	6.03138e-005
    79	1.70073e-007	6.01411e-005	6.03112e-005
    80	1.71779e-007	6.01411e-005	6.03129e-005
    81	1.72162e-007	6.01411e-005	6.03133e-005
    82	1.73754e-007	6.01411e-005	6.03149e-005
    83	1.74266e-007	6.01411e-005	6.03154e-005
    84	1.77988e-007	6.01411e-005	6.03191e-005
    85	1.79604e-007	6.01411e-005	6.03207e-005
    86	1.7164e-007	6.01411e-005	6.03127e-005
    87	1.79679e-007	6.01411e-005	6.03208e-005
    88	1.76963e-007	6.01411e-005	6.03181e-005
    89	1.80415e-007	6.01411e-005	6.03215e-005
    90	1.80053e-007	6.01411e-005	6.03212e-005
    91	1.79039e-007	6.01411e-005	6.03201e-005
    92	1.77948e-007	6.01411e-005	6.03191e-005
    93	1.76785e-007	6.01411e-005	6.03179e-005
    94	1.75554e-007	6.01411e-005	6.03167e-005
    95	1.7426e-007	6.01411e-005	6.03154e-005
    96	1.72906e-007	6.01411e-005	6.0314e-005
    97	1.71496e-007	6.01411e-005	6.03126e-005
    98	1.70033e-007	6.01411e-005	6.03111e-005
    99	1.6852e-007	6.01411e-005	6.03096e-005
   100	1.69927e-007	6.01411e-005	6.0311e-005
   101	1.70083e-007	6.01411e-005	6.03112e-005

Measurement: vth
  step	v(n004)	at
     1	8.84522	2.05954e-005
     2	8.84519	2.05954e-005
     3	8.84517	2.05955e-005
     4	8.84514	2.05955e-005
     5	8.84512	2.05955e-005
     6	8.8451	2.05955e-005
     7	8.84508	2.05956e-005
     8	8.84505	2.05956e-005
     9	8.84503	2.05956e-005
    10	8.84502	2.05956e-005
    11	8.845	2.05956e-005
    12	8.84498	2.05956e-005
    13	8.84496	2.05957e-005
    14	8.84495	2.05957e-005
    15	8.84493	2.05957e-005
    16	8.84492	2.05957e-005
    17	8.84491	2.05957e-005
    18	8.84489	2.05957e-005
    19	8.84488	2.05957e-005
    20	8.84487	2.05957e-005
    21	8.84486	2.05957e-005
    22	8.84485	2.05957e-005
    23	8.84484	2.05957e-005
    24	8.84484	2.05958e-005
    25	8.84483	2.05958e-005
    26	8.84482	2.05958e-005
    27	8.84482	2.05958e-005
    28	8.84481	2.05958e-005
    29	8.84481	2.05958e-005
    30	8.84481	2.05958e-005
    31	8.84481	2.05958e-005
    32	8.8448	2.05958e-005
    33	8.84481	2.05957e-005
    34	8.84481	2.05957e-005
    35	8.84481	2.05957e-005
    36	8.84481	2.05957e-005
    37	8.84481	2.05957e-005
    38	8.84482	2.05957e-005
    39	8.84482	2.05957e-005
    40	8.84483	2.05957e-005
    41	8.84485	2.05957e-005
    42	8.84487	2.05956e-005
    43	8.8449	2.05956e-005
    44	8.84552	2.05949e-005
    45	8.84548	2.0595e-005
    46	8.84543	2.0595e-005
    47	8.8434	2.05965e-005
    48	8.8434	2.05965e-005
    49	8.84341	2.05966e-005
    50	8.84342	2.05966e-005
    51	8.84345	2.05966e-005
    52	8.8435	2.05966e-005
    53	8.84355	2.05966e-005
    54	8.84363	2.05966e-005
    55	8.84372	2.05965e-005
    56	8.84383	2.05965e-005
    57	8.84395	2.05964e-005
    58	8.8441	2.05963e-005
    59	8.84518	2.05952e-005
    60	8.8452	2.05952e-005
    61	8.84523	2.05952e-005
    62	8.84527	2.05952e-005
    63	8.84532	2.05952e-005
    64	8.84537	2.05952e-005
    65	8.84543	2.05951e-005
    66	8.8455	2.05951e-005
    67	8.8449	2.05957e-005
    68	8.84486	2.05958e-005
    69	8.84483	2.05958e-005
    70	8.84482	2.05959e-005
    71	8.84482	2.05959e-005
    72	8.84481	2.05959e-005
    73	8.84481	2.05959e-005
    74	8.84481	2.0596e-005
    75	8.84481	2.0596e-005
    76	8.84482	2.0596e-005
    77	8.84483	2.0596e-005
    78	8.84483	2.0596e-005
    79	8.84484	2.0596e-005
    80	8.84486	2.0596e-005
    81	8.84487	2.0596e-005
    82	8.84489	2.0596e-005
    83	8.84491	2.0596e-005
    84	8.84493	2.0596e-005
    85	8.84495	2.0596e-005
    86	8.84497	2.0596e-005
    87	8.845	2.0596e-005
    88	8.84503	2.0596e-005
    89	8.84506	2.0596e-005
    90	8.84509	2.0596e-005
    91	8.84512	2.05959e-005
    92	8.84515	2.05959e-005
    93	8.84519	2.05959e-005
    94	8.84523	2.05959e-005
    95	8.84527	2.05959e-005
    96	8.84531	2.05958e-005
    97	8.84536	2.05958e-005
    98	8.8454	2.05958e-005
    99	8.84545	2.05957e-005
   100	8.8455	2.05957e-005
   101	8.84555	2.05957e-005


Date: Mon Mar 21 20:41:26 2022
Total elapsed time: 1.075 seconds.

tnom = 27
temp = 27
method = modified trap
totiter = 2255
traniter = 2231
tranpoints = 1108
accept = 1089
rejected = 19
matrix size = 11
fillins = 0
solver = Normal
Matrix Compiler1: 674 bytes object code size  0.1/0.1/[0.1]
Matrix Compiler2: off  [0.1]/0.1/0.1

