Circuit: * C:\Users\user\Documents\LTspiceXVII\file\Montecarlo\monte_SiC.asc

Direct Newton iteration for .op point succeeded.
.step tol1=0
.step tol1=0.01
.step tol1=0.02
.step tol1=0.03
.step tol1=0.04
.step tol1=0.05
.step tol1=0.06
.step tol1=0.07
.step tol1=0.08
.step tol1=0.09
.step tol1=0.1
.step tol1=0.11
.step tol1=0.12
.step tol1=0.13
.step tol1=0.14
.step tol1=0.15
.step tol1=0.16
.step tol1=0.17
.step tol1=0.18
.step tol1=0.19
.step tol1=0.2
.step tol1=0.21
.step tol1=0.22
.step tol1=0.23
.step tol1=0.24
.step tol1=0.25
.step tol1=0.26
.step tol1=0.27
.step tol1=0.28
.step tol1=0.29
.step tol1=0.3
.step tol1=0.31
.step tol1=0.32
.step tol1=0.33
.step tol1=0.34
.step tol1=0.35
.step tol1=0.36
.step tol1=0.37
.step tol1=0.38
.step tol1=0.39
.step tol1=0.4
.step tol1=0.41
.step tol1=0.42
.step tol1=0.43
.step tol1=0.44
.step tol1=0.45
.step tol1=0.46
.step tol1=0.47
.step tol1=0.48
.step tol1=0.49
.step tol1=0.5
.step tol1=0.51
.step tol1=0.52
.step tol1=0.53
.step tol1=0.54
.step tol1=0.55
.step tol1=0.56
.step tol1=0.57
.step tol1=0.58
.step tol1=0.59
.step tol1=0.6
.step tol1=0.61
.step tol1=0.62
.step tol1=0.63
.step tol1=0.64
.step tol1=0.65
.step tol1=0.66
.step tol1=0.67
.step tol1=0.68
.step tol1=0.69
.step tol1=0.7
.step tol1=0.71
.step tol1=0.72
.step tol1=0.73
.step tol1=0.74
.step tol1=0.75
.step tol1=0.76
.step tol1=0.77
.step tol1=0.78
.step tol1=0.79
.step tol1=0.8
.step tol1=0.81
.step tol1=0.82
.step tol1=0.83
.step tol1=0.84
.step tol1=0.85
.step tol1=0.86
.step tol1=0.87
.step tol1=0.88
.step tol1=0.89
.step tol1=0.9
.step tol1=0.91
.step tol1=0.92
.step tol1=0.93
.step tol1=0.94
.step tol1=0.95
.step tol1=0.96
.step tol1=0.97
.step tol1=0.98
.step tol1=0.99
.step tol1=1


Measurement: imax
  step	MAX(-i(v1))	FROM	TO
     1	4.64401	0	0.0001
     2	4.62317	0	0.0001
     3	4.60252	0	0.0001
     4	4.58205	0	0.0001
     5	4.56176	0	0.0001
     6	4.54164	0	0.0001
     7	4.5217	0	0.0001
     8	4.50193	0	0.0001
     9	4.48232	0	0.0001
    10	4.46289	0	0.0001
    11	4.44362	0	0.0001
    12	4.42451	0	0.0001
    13	4.40556	0	0.0001
    14	4.38677	0	0.0001
    15	4.36813	0	0.0001
    16	4.34966	0	0.0001
    17	4.33133	0	0.0001
    18	4.31316	0	0.0001
    19	4.29513	0	0.0001
    20	4.27725	0	0.0001
    21	4.25952	0	0.0001
    22	4.24193	0	0.0001
    23	4.22449	0	0.0001
    24	4.20718	0	0.0001
    25	4.19002	0	0.0001
    26	4.17299	0	0.0001
    27	4.1561	0	0.0001
    28	4.13934	0	0.0001
    29	4.12271	0	0.0001
    30	4.10621	0	0.0001
    31	4.08985	0	0.0001
    32	4.07361	0	0.0001
    33	4.0575	0	0.0001
    34	4.04151	0	0.0001
    35	4.02565	0	0.0001
    36	4.0099	0	0.0001
    37	3.99428	0	0.0001
    38	3.97878	0	0.0001
    39	3.9634	0	0.0001
    40	3.94813	0	0.0001
    41	3.93298	0	0.0001
    42	3.91795	0	0.0001
    43	3.90302	0	0.0001
    44	3.88821	0	0.0001
    45	3.87351	0	0.0001
    46	3.85892	0	0.0001
    47	3.84443	0	0.0001
    48	3.83005	0	0.0001
    49	3.81578	0	0.0001
    50	3.80161	0	0.0001
    51	3.78755	0	0.0001
    52	3.77359	0	0.0001
    53	3.75973	0	0.0001
    54	3.74597	0	0.0001
    55	3.73231	0	0.0001
    56	3.71874	0	0.0001
    57	3.70528	0	0.0001
    58	3.69191	0	0.0001
    59	3.67863	0	0.0001
    60	3.66545	0	0.0001
    61	3.65236	0	0.0001
    62	3.63936	0	0.0001
    63	3.62646	0	0.0001
    64	3.61364	0	0.0001
    65	3.60091	0	0.0001
    66	3.58828	0	0.0001
    67	3.57573	0	0.0001
    68	3.56326	0	0.0001
    69	3.55089	0	0.0001
    70	3.53859	0	0.0001
    71	3.52638	0	0.0001
    72	3.51425	0	0.0001
    73	3.50221	0	0.0001
    74	3.49025	0	0.0001
    75	3.47837	0	0.0001
    76	3.46656	0	0.0001
    77	3.45484	0	0.0001
    78	3.44319	0	0.0001
    79	3.43161	0	0.0001
    80	3.42012	0	0.0001
    81	3.4087	0	0.0001
    82	3.39736	0	0.0001
    83	3.38609	0	0.0001
    84	3.3749	0	0.0001
    85	3.36378	0	0.0001
    86	3.35273	0	0.0001
    87	3.34176	0	0.0001
    88	3.33085	0	0.0001
    89	3.32001	0	0.0001
    90	3.30926	0	0.0001
    91	3.29856	0	0.0001
    92	3.28792	0	0.0001
    93	3.27736	0	0.0001
    94	3.26688	0	0.0001
    95	3.25645	0	0.0001
    96	3.24609	0	0.0001
    97	3.23579	0	0.0001
    98	3.22556	0	0.0001
    99	3.21539	0	0.0001
   100	3.20528	0	0.0001
   101	3.19524	0	0.0001

Measurement: tr1
  step	tr1	FROM	TO
     1	7.66013e-007	2.02475e-005	2.10135e-005
     2	7.64741e-007	2.02474e-005	2.10122e-005
     3	7.63479e-007	2.02474e-005	2.10109e-005
     4	7.62226e-007	2.02474e-005	2.10096e-005
     5	7.60983e-007	2.02473e-005	2.10083e-005
     6	7.59747e-007	2.02473e-005	2.1007e-005
     7	7.58521e-007	2.02472e-005	2.10057e-005
     8	7.56401e-007	2.02472e-005	2.10036e-005
     9	7.55169e-007	2.02471e-005	2.10023e-005
    10	7.53946e-007	2.02471e-005	2.1001e-005
    11	7.52734e-007	2.0247e-005	2.09998e-005
    12	7.5153e-007	2.0247e-005	2.09985e-005
    13	7.50336e-007	2.0247e-005	2.09973e-005
    14	7.4915e-007	2.02469e-005	2.09961e-005
    15	7.47973e-007	2.02469e-005	2.09948e-005
    16	7.46805e-007	2.02468e-005	2.09936e-005
    17	7.45645e-007	2.02468e-005	2.09924e-005
    18	7.44493e-007	2.02468e-005	2.09912e-005
    19	7.43349e-007	2.02467e-005	2.09901e-005
    20	7.42213e-007	2.02467e-005	2.09889e-005
    21	7.41085e-007	2.02466e-005	2.09877e-005
    22	7.39964e-007	2.02466e-005	2.09866e-005
    23	7.3885e-007	2.02466e-005	2.09854e-005
    24	7.37743e-007	2.02465e-005	2.09843e-005
    25	7.36643e-007	2.02465e-005	2.09831e-005
    26	7.35551e-007	2.02464e-005	2.0982e-005
    27	7.34464e-007	2.02464e-005	2.09809e-005
    28	7.33385e-007	2.02464e-005	2.09797e-005
    29	7.32314e-007	2.02463e-005	2.09786e-005
    30	7.3165e-007	2.02463e-005	2.09779e-005
    31	7.30992e-007	2.02462e-005	2.09772e-005
    32	7.30339e-007	2.02462e-005	2.09765e-005
    33	7.2969e-007	2.02462e-005	2.09759e-005
    34	7.29047e-007	2.02461e-005	2.09752e-005
    35	7.28409e-007	2.02461e-005	2.09745e-005
    36	7.27775e-007	2.02461e-005	2.09738e-005
    37	7.27146e-007	2.0246e-005	2.09732e-005
    38	7.26521e-007	2.0246e-005	2.09725e-005
    39	7.25901e-007	2.02459e-005	2.09718e-005
    40	7.25286e-007	2.02459e-005	2.09712e-005
    41	7.24674e-007	2.02459e-005	2.09705e-005
    42	7.24067e-007	2.02458e-005	2.09699e-005
    43	7.23464e-007	2.02458e-005	2.09693e-005
    44	7.22865e-007	2.02458e-005	2.09686e-005
    45	7.2227e-007	2.02457e-005	2.0968e-005
    46	7.21678e-007	2.02457e-005	2.09674e-005
    47	7.21091e-007	2.02457e-005	2.09667e-005
    48	7.20508e-007	2.02456e-005	2.09661e-005
    49	7.19928e-007	2.02456e-005	2.09655e-005
    50	7.19343e-007	2.02456e-005	2.09649e-005
    51	7.18975e-007	2.02455e-005	2.09645e-005
    52	7.18394e-007	2.02455e-005	2.09639e-005
    53	7.17817e-007	2.02455e-005	2.09633e-005
    54	7.17245e-007	2.02454e-005	2.09627e-005
    55	7.16677e-007	2.02454e-005	2.09621e-005
    56	7.15835e-007	2.02454e-005	2.09612e-005
    57	7.15278e-007	2.02453e-005	2.09606e-005
    58	7.14725e-007	2.02453e-005	2.096e-005
    59	7.14177e-007	2.02453e-005	2.09594e-005
    60	7.13633e-007	2.02452e-005	2.09589e-005
    61	7.13094e-007	2.02452e-005	2.09583e-005
    62	7.12558e-007	2.02452e-005	2.09577e-005
    63	7.12027e-007	2.02451e-005	2.09571e-005
    64	7.115e-007	2.02451e-005	2.09566e-005
    65	7.10976e-007	2.02451e-005	2.0956e-005
    66	7.10457e-007	2.0245e-005	2.09555e-005
    67	7.09942e-007	2.0245e-005	2.09549e-005
    68	7.0943e-007	2.0245e-005	2.09544e-005
    69	7.08926e-007	2.02449e-005	2.09539e-005
    70	7.08421e-007	2.02449e-005	2.09533e-005
    71	7.0792e-007	2.02449e-005	2.09528e-005
    72	7.07422e-007	2.02448e-005	2.09523e-005
    73	7.07184e-007	2.02448e-005	2.0952e-005
    74	7.06698e-007	2.02448e-005	2.09515e-005
    75	7.06222e-007	2.02447e-005	2.0951e-005
    76	7.05738e-007	2.02447e-005	2.09505e-005
    77	7.05258e-007	2.02447e-005	2.09499e-005
    78	7.0478e-007	2.02447e-005	2.09494e-005
    79	7.04299e-007	2.02446e-005	2.09489e-005
    80	7.0383e-007	2.02446e-005	2.09484e-005
    81	7.0336e-007	2.02446e-005	2.09479e-005
    82	7.02895e-007	2.02445e-005	2.09474e-005
    83	7.02434e-007	2.02445e-005	2.09469e-005
    84	7.01975e-007	2.02445e-005	2.09465e-005
    85	7.0152e-007	2.02444e-005	2.0946e-005
    86	7.01068e-007	2.02444e-005	2.09455e-005
    87	7.00618e-007	2.02444e-005	2.0945e-005
    88	7.00176e-007	2.02444e-005	2.09445e-005
    89	6.99728e-007	2.02443e-005	2.09441e-005
    90	6.99297e-007	2.02443e-005	2.09436e-005
    91	6.98859e-007	2.02443e-005	2.09431e-005
    92	6.98415e-007	2.02442e-005	2.09427e-005
    93	6.97983e-007	2.02442e-005	2.09422e-005
    94	6.97564e-007	2.02442e-005	2.09418e-005
    95	6.97137e-007	2.02442e-005	2.09413e-005
    96	6.96713e-007	2.02441e-005	2.09408e-005
    97	6.96291e-007	2.02441e-005	2.09404e-005
    98	6.95873e-007	2.02441e-005	2.094e-005
    99	6.95457e-007	2.02441e-005	2.09395e-005
   100	6.95043e-007	2.0244e-005	2.09391e-005
   101	6.94632e-007	2.0244e-005	2.09386e-005

Measurement: tr2
  step	tr2	FROM	TO
     1	1.80141e-007	6.0141e-005	6.03212e-005
     2	1.74077e-007	6.0141e-005	6.0315e-005
     3	1.8034e-007	6.01409e-005	6.03212e-005
     4	1.72552e-007	6.01408e-005	6.03134e-005
     5	1.78503e-007	6.01408e-005	6.03193e-005
     6	1.71989e-007	6.01407e-005	6.03127e-005
     7	1.78817e-007	6.01406e-005	6.03194e-005
     8	1.68253e-007	6.01405e-005	6.03088e-005
     9	1.71106e-007	6.01405e-005	6.03116e-005
    10	1.73583e-007	6.01404e-005	6.0314e-005
    11	1.75721e-007	6.01404e-005	6.03161e-005
    12	1.79293e-007	6.01403e-005	6.03196e-005
    13	1.7641e-007	6.01402e-005	6.03166e-005
    14	1.72412e-007	6.01402e-005	6.03126e-005
    15	1.67104e-007	6.01401e-005	6.03072e-005
    16	1.69022e-007	6.01401e-005	6.03091e-005
    17	1.70023e-007	6.014e-005	6.031e-005
    18	1.71776e-007	6.01399e-005	6.03117e-005
    19	1.65578e-007	6.01399e-005	6.03055e-005
    20	1.70653e-007	6.01398e-005	6.03105e-005
    21	1.73188e-007	6.01398e-005	6.0313e-005
    22	1.73034e-007	6.01397e-005	6.03128e-005
    23	1.68669e-007	6.01397e-005	6.03084e-005
    24	1.71955e-007	6.01396e-005	6.03116e-005
    25	1.72555e-007	6.01396e-005	6.03121e-005
    26	1.65378e-007	6.01395e-005	6.03049e-005
    27	1.68057e-007	6.01395e-005	6.03075e-005
    28	1.70228e-007	6.01394e-005	6.03097e-005
    29	1.72469e-007	6.01394e-005	6.03119e-005
    30	1.68799e-007	6.01394e-005	6.03081e-005
    31	1.71535e-007	6.01393e-005	6.03108e-005
    32	1.67665e-007	6.01393e-005	6.03069e-005
    33	1.72512e-007	6.01392e-005	6.03117e-005
    34	1.69594e-007	6.01392e-005	6.03088e-005
    35	1.69584e-007	6.01391e-005	6.03087e-005
    36	1.69953e-007	6.01391e-005	6.0309e-005
    37	1.70982e-007	6.01375e-005	6.03085e-005
    38	1.70916e-007	6.01375e-005	6.03084e-005
    39	1.70851e-007	6.01375e-005	6.03083e-005
    40	1.70787e-007	6.01374e-005	6.03082e-005
    41	1.70724e-007	6.01374e-005	6.03081e-005
    42	1.70661e-007	6.01374e-005	6.0308e-005
    43	1.70598e-007	6.01373e-005	6.03079e-005
    44	1.70537e-007	6.01373e-005	6.03078e-005
    45	1.70476e-007	6.01373e-005	6.03077e-005
    46	1.70415e-007	6.01372e-005	6.03076e-005
    47	1.70368e-007	6.01372e-005	6.03076e-005
    48	1.70325e-007	6.01372e-005	6.03075e-005
    49	1.70282e-007	6.01371e-005	6.03074e-005
    50	1.70239e-007	6.01371e-005	6.03073e-005
    51	1.70197e-007	6.01371e-005	6.03073e-005
    52	1.70155e-007	6.0137e-005	6.03072e-005
    53	1.70113e-007	6.0137e-005	6.03071e-005
    54	1.70071e-007	6.0137e-005	6.03071e-005
    55	1.70029e-007	6.0137e-005	6.0307e-005
    56	1.69988e-007	6.01369e-005	6.03069e-005
    57	1.69947e-007	6.01369e-005	6.03068e-005
    58	1.69906e-007	6.01369e-005	6.03068e-005
    59	1.69865e-007	6.01368e-005	6.03067e-005
    60	1.69825e-007	6.01368e-005	6.03066e-005
    61	1.69785e-007	6.01368e-005	6.03066e-005
    62	1.69745e-007	6.01368e-005	6.03065e-005
    63	1.69705e-007	6.01367e-005	6.03064e-005
    64	1.69666e-007	6.01367e-005	6.03064e-005
    65	1.69627e-007	6.01367e-005	6.03063e-005
    66	1.69588e-007	6.01367e-005	6.03062e-005
    67	1.69549e-007	6.01366e-005	6.03062e-005
    68	1.6951e-007	6.01366e-005	6.03061e-005
    69	1.7807e-007	6.01373e-005	6.03154e-005
    70	1.69948e-007	6.01417e-005	6.03116e-005
    71	1.64543e-007	6.01386e-005	6.03032e-005
    72	1.69139e-007	6.01416e-005	6.03107e-005
    73	1.70499e-007	6.01381e-005	6.03086e-005
    74	1.64561e-007	6.01387e-005	6.03033e-005
    75	1.68093e-007	6.01373e-005	6.03054e-005
    76	1.77009e-007	6.01371e-005	6.03141e-005
    77	1.73199e-007	6.01372e-005	6.03104e-005
    78	1.72074e-007	6.01377e-005	6.03098e-005
    79	1.66996e-007	6.01416e-005	6.03086e-005
    80	1.62328e-007	6.0138e-005	6.03004e-005
    81	1.65098e-007	6.01382e-005	6.03033e-005
    82	1.64849e-007	6.01373e-005	6.03021e-005
    83	1.70152e-007	6.01371e-005	6.03072e-005
    84	1.74651e-007	6.0137e-005	6.03116e-005
    85	1.74787e-007	6.01369e-005	6.03117e-005
    86	1.72973e-007	6.0137e-005	6.03099e-005
    87	1.69986e-007	6.0137e-005	6.0307e-005
    88	1.74698e-007	6.01373e-005	6.0312e-005
    89	1.62387e-007	6.01378e-005	6.03002e-005
    90	1.66153e-007	6.014e-005	6.03061e-005
    91	1.62304e-007	6.0141e-005	6.03033e-005
    92	1.67271e-007	6.01376e-005	6.03048e-005
    93	1.71035e-007	6.01374e-005	6.03084e-005
    94	1.65125e-007	6.01388e-005	6.03039e-005
    95	1.65342e-007	6.01385e-005	6.03038e-005
    96	1.65496e-007	6.01381e-005	6.03036e-005
    97	1.64912e-007	6.01376e-005	6.03025e-005
    98	1.63353e-007	6.0137e-005	6.03004e-005
    99	1.65901e-007	6.01369e-005	6.03028e-005
   100	1.68218e-007	6.01368e-005	6.0305e-005
   101	1.70926e-007	6.01367e-005	6.03077e-005

Measurement: vth
  step	v(n004)	at
     1	8.84522	2.05954e-005
     2	8.85579	2.05979e-005
     3	8.86636	2.06004e-005
     4	8.87691	2.06029e-005
     5	8.88745	2.06054e-005
     6	8.89798	2.06079e-005
     7	8.9085	2.06104e-005
     8	8.91948	2.06125e-005
     9	8.92993	2.06151e-005
    10	8.94037	2.06177e-005
    11	8.9508	2.06203e-005
    12	8.96122	2.06229e-005
    13	8.97164	2.06255e-005
    14	8.98204	2.06281e-005
    15	8.99244	2.06308e-005
    16	9.00283	2.06334e-005
    17	9.01321	2.06361e-005
    18	9.02358	2.06387e-005
    19	9.03394	2.06414e-005
    20	9.0443	2.06441e-005
    21	9.05465	2.06468e-005
    22	9.06499	2.06494e-005
    23	9.07532	2.06521e-005
    24	9.08564	2.06548e-005
    25	9.09596	2.06576e-005
    26	9.10627	2.06603e-005
    27	9.11657	2.0663e-005
    28	9.12687	2.06657e-005
    29	9.13715	2.06685e-005
    30	9.14743	2.06712e-005
    31	9.15771	2.0674e-005
    32	9.16797	2.06767e-005
    33	9.17823	2.06795e-005
    34	9.18848	2.06823e-005
    35	9.19872	2.06851e-005
    36	9.20896	2.06878e-005
    37	9.2188	2.06914e-005
    38	9.22855	2.06951e-005
    39	9.23829	2.06988e-005
    40	9.24802	2.07026e-005
    41	9.25776	2.07063e-005
    42	9.26748	2.07101e-005
    43	9.2772	2.07138e-005
    44	9.28692	2.07176e-005
    45	9.29663	2.07214e-005
    46	9.30633	2.07252e-005
    47	9.31603	2.07291e-005
    48	9.32573	2.07329e-005
    49	9.33542	2.07368e-005
    50	9.34511	2.07406e-005
    51	9.35464	2.07445e-005
    52	9.36432	2.07484e-005
    53	9.37399	2.07523e-005
    54	9.38366	2.07562e-005
    55	9.39333	2.07601e-005
    56	9.40322	2.07639e-005
    57	9.41287	2.07678e-005
    58	9.42253	2.07717e-005
    59	9.43217	2.07757e-005
    60	9.44182	2.07796e-005
    61	9.45147	2.07836e-005
    62	9.46111	2.07875e-005
    63	9.47075	2.07915e-005
    64	9.48016	2.07964e-005
    65	9.48948	2.08019e-005
    66	9.49878	2.08074e-005
    67	9.50809	2.08129e-005
    68	9.5174	2.08184e-005
    69	9.5267	2.08239e-005
    70	9.536	2.08295e-005
    71	9.5453	2.0835e-005
    72	9.5546	2.08406e-005
    73	9.56382	2.08464e-005
    74	9.57313	2.08519e-005
    75	9.58242	2.08575e-005
    76	9.59172	2.08631e-005
    77	9.60102	2.08688e-005
    78	9.61032	2.08744e-005
    79	9.61961	2.088e-005
    80	9.62891	2.08857e-005
    81	9.6382	2.08913e-005
    82	9.64733	2.08987e-005
    83	9.6564	2.09066e-005
    84	9.66548	2.09145e-005
    85	9.67455	2.09225e-005
    86	9.68362	2.09305e-005
    87	9.69269	2.09385e-005
    88	9.70176	2.09465e-005
    89	9.71083	2.09545e-005
    90	9.71989	2.09626e-005
    91	9.72896	2.09706e-005
    92	9.73803	2.09787e-005
    93	9.74709	2.09869e-005
    94	9.7561	2.09962e-005
    95	9.76502	2.10076e-005
    96	9.77394	2.10191e-005
    97	9.78286	2.10306e-005
    98	9.79178	2.10421e-005
    99	9.8007	2.10537e-005
   100	9.80962	2.10653e-005
   101	9.81854	2.1077e-005


Date: Mon Mar 21 20:42:40 2022
Total elapsed time: 1.090 seconds.

tnom = 27
temp = 27
method = modified trap
totiter = 2302
traniter = 2280
tranpoints = 1096
accept = 1081
rejected = 15
matrix size = 11
fillins = 0
solver = Normal
Matrix Compiler1: 674 bytes object code size  0.1/0.1/[0.1]
Matrix Compiler2: 847 bytes object code size  0.1/0.1/[0.1]

