Circuit: * C:\Users\user\Documents\LTspiceXVII\file\Montecarlo\monte_SiC.asc

Direct Newton iteration for .op point succeeded.
.step tol1=0
.step tol1=0.01
.step tol1=0.02
.step tol1=0.03
.step tol1=0.04
.step tol1=0.05
.step tol1=0.06
.step tol1=0.07
.step tol1=0.08
.step tol1=0.09
.step tol1=0.1
.step tol1=0.11
.step tol1=0.12
.step tol1=0.13
.step tol1=0.14
.step tol1=0.15
.step tol1=0.16
.step tol1=0.17
.step tol1=0.18
.step tol1=0.19
.step tol1=0.2
.step tol1=0.21
.step tol1=0.22
.step tol1=0.23
.step tol1=0.24
.step tol1=0.25
.step tol1=0.26
.step tol1=0.27
.step tol1=0.28
.step tol1=0.29
.step tol1=0.3
.step tol1=0.31
.step tol1=0.32
.step tol1=0.33
.step tol1=0.34
.step tol1=0.35
.step tol1=0.36
.step tol1=0.37
.step tol1=0.38
.step tol1=0.39
.step tol1=0.4
.step tol1=0.41
.step tol1=0.42
.step tol1=0.43
.step tol1=0.44
.step tol1=0.45
.step tol1=0.46
.step tol1=0.47
.step tol1=0.48
.step tol1=0.49
.step tol1=0.5
.step tol1=0.51
.step tol1=0.52
.step tol1=0.53
.step tol1=0.54
.step tol1=0.55
.step tol1=0.56
.step tol1=0.57
.step tol1=0.58
.step tol1=0.59
.step tol1=0.6
.step tol1=0.61
.step tol1=0.62
.step tol1=0.63
.step tol1=0.64
.step tol1=0.65
.step tol1=0.66
.step tol1=0.67
.step tol1=0.68
.step tol1=0.69
.step tol1=0.7
.step tol1=0.71
.step tol1=0.72
.step tol1=0.73
.step tol1=0.74
.step tol1=0.75
.step tol1=0.76
.step tol1=0.77
.step tol1=0.78
.step tol1=0.79
.step tol1=0.8
.step tol1=0.81
.step tol1=0.82
.step tol1=0.83
.step tol1=0.84
.step tol1=0.85
.step tol1=0.86
.step tol1=0.87
.step tol1=0.88
.step tol1=0.89
.step tol1=0.9
.step tol1=0.91
.step tol1=0.92
.step tol1=0.93
.step tol1=0.94
.step tol1=0.95
.step tol1=0.96
.step tol1=0.97
.step tol1=0.98
.step tol1=0.99
.step tol1=1


Measurement: imax
  step	MAX(-i(v1))	FROM	TO
     1	4.64401	0	0.0001
     2	4.68922	0	0.0001
     3	4.73435	0	0.0001
     4	4.77949	0	0.0001
     5	4.8246	0	0.0001
     6	4.86969	0	0.0001
     7	4.91475	0	0.0001
     8	4.95979	0	0.0001
     9	5.00481	0	0.0001
    10	5.0498	0	0.0001
    11	5.09476	0	0.0001
    12	5.1397	0	0.0001
    13	5.18462	0	0.0001
    14	5.22951	0	0.0001
    15	5.27442	0	0.0001
    16	5.31926	0	0.0001
    17	5.36404	0	0.0001
    18	5.40885	0	0.0001
    19	5.45363	0	0.0001
    20	5.49835	0	0.0001
    21	5.5431	0	0.0001
    22	5.58778	0	0.0001
    23	5.63245	0	0.0001
    24	5.6771	0	0.0001
    25	5.72172	0	0.0001
    26	5.76632	0	0.0001
    27	5.8109	0	0.0001
    28	5.85548	0	0.0001
    29	5.89998	0	0.0001
    30	5.9445	0	0.0001
    31	5.98897	0	0.0001
    32	6.03345	0	0.0001
    33	6.07786	0	0.0001
    34	6.12227	0	0.0001
    35	6.16665	0	0.0001
    36	6.21101	0	0.0001
    37	6.25535	0	0.0001
    38	6.29966	0	0.0001
    39	6.34395	0	0.0001
    40	6.38821	0	0.0001
    41	6.43245	0	0.0001
    42	6.47667	0	0.0001
    43	6.52086	0	0.0001
    44	6.56503	0	0.0001
    45	6.60918	0	0.0001
    46	6.65331	0	0.0001
    47	6.6974	0	0.0001
    48	6.74148	0	0.0001
    49	6.78553	0	0.0001
    50	6.82956	0	0.0001
    51	6.87356	0	0.0001
    52	6.91754	0	0.0001
    53	6.96149	0	0.0001
    54	7.00542	0	0.0001
    55	7.04933	0	0.0001
    56	7.09321	0	0.0001
    57	7.13707	0	0.0001
    58	7.18091	0	0.0001
    59	7.22472	0	0.0001
    60	7.26851	0	0.0001
    61	7.31227	0	0.0001
    62	7.35601	0	0.0001
    63	7.39973	0	0.0001
    64	7.44342	0	0.0001
    65	7.48709	0	0.0001
    66	7.53069	0	0.0001
    67	7.57435	0	0.0001
    68	7.61795	0	0.0001
    69	7.66152	0	0.0001
    70	7.70506	0	0.0001
    71	7.74857	0	0.0001
    72	7.79204	0	0.0001
    73	7.83547	0	0.0001
    74	7.87885	0	0.0001
    75	7.92217	0	0.0001
    76	7.96542	0	0.0001
    77	8.00859	0	0.0001
    78	8.05167	0	0.0001
    79	8.09465	0	0.0001
    80	8.1375	0	0.0001
    81	8.18023	0	0.0001
    82	8.22281	0	0.0001
    83	8.26524	0	0.0001
    84	8.30751	0	0.0001
    85	8.3496	0	0.0001
    86	8.3915	0	0.0001
    87	8.4332	0	0.0001
    88	8.4747	0	0.0001
    89	8.51599	0	0.0001
    90	8.55705	0	0.0001
    91	8.59788	0	0.0001
    92	8.63848	0	0.0001
    93	8.67884	0	0.0001
    94	8.71895	0	0.0001
    95	8.75881	0	0.0001
    96	8.79841	0	0.0001
    97	8.83776	0	0.0001
    98	8.87685	0	0.0001
    99	8.91567	0	0.0001
   100	8.95423	0	0.0001
   101	8.99252	0	0.0001

Measurement: tr1
  step	tr1	FROM	TO
     1	7.66013e-007	2.02475e-005	2.10135e-005
     2	7.7141e-007	2.02521e-005	2.10235e-005
     3	7.82587e-007	2.02498e-005	2.10324e-005
     4	7.92424e-007	2.02522e-005	2.10446e-005
     5	8.02347e-007	2.02527e-005	2.1055e-005
     6	8.1278e-007	2.02527e-005	2.10655e-005
     7	8.20927e-007	2.02569e-005	2.10779e-005
     8	8.28546e-007	2.02615e-005	2.10901e-005
     9	8.32369e-007	2.02677e-005	2.11e-005
    10	8.42003e-007	2.0269e-005	2.1111e-005
    11	8.54052e-007	2.02687e-005	2.11227e-005
    12	8.65677e-007	2.02686e-005	2.11343e-005
    13	8.77082e-007	2.02688e-005	2.11459e-005
    14	8.89698e-007	2.0268e-005	2.11577e-005
    15	8.9857e-007	2.02702e-005	2.11688e-005
    16	9.06716e-007	2.02731e-005	2.11798e-005
    17	9.11735e-007	2.02801e-005	2.11918e-005
    18	9.22281e-007	2.02804e-005	2.12027e-005
    19	9.32452e-007	2.02807e-005	2.12132e-005
    20	9.41275e-007	2.02845e-005	2.12258e-005
    21	9.49754e-007	2.02892e-005	2.1239e-005
    22	9.62451e-007	2.02894e-005	2.12519e-005
    23	9.7287e-007	2.02918e-005	2.12646e-005
    24	9.81509e-007	2.0296e-005	2.12775e-005
    25	9.90031e-007	2.02994e-005	2.12894e-005
    26	1.00373e-006	2.02975e-005	2.13012e-005
    27	1.01473e-006	2.02991e-005	2.13138e-005
    28	1.02657e-006	2.02989e-005	2.13254e-005
    29	1.03275e-006	2.03061e-005	2.13388e-005
    30	1.04831e-006	2.03033e-005	2.13516e-005
    31	1.05847e-006	2.03073e-005	2.13657e-005
    32	1.0727e-006	2.03065e-005	2.13792e-005
    33	1.08062e-006	2.03125e-005	2.13931e-005
    34	1.0924e-006	2.03142e-005	2.14066e-005
    35	1.10401e-006	2.03159e-005	2.14199e-005
    36	1.11547e-006	2.03175e-005	2.1433e-005
    37	1.12681e-006	2.03192e-005	2.1446e-005
    38	1.13889e-006	2.03209e-005	2.14598e-005
    39	1.15234e-006	2.03226e-005	2.14749e-005
    40	1.16561e-006	2.03243e-005	2.14899e-005
    41	1.17851e-006	2.0326e-005	2.15045e-005
    42	1.19163e-006	2.03277e-005	2.15193e-005
    43	1.20458e-006	2.03294e-005	2.1534e-005
    44	1.21737e-006	2.03311e-005	2.15485e-005
    45	1.23002e-006	2.03328e-005	2.15628e-005
    46	1.24413e-006	2.03345e-005	2.15786e-005
    47	1.25899e-006	2.03362e-005	2.15952e-005
    48	1.27345e-006	2.03382e-005	2.16116e-005
    49	1.28767e-006	2.03402e-005	2.16279e-005
    50	1.30162e-006	2.03423e-005	2.16439e-005
    51	1.31532e-006	2.03443e-005	2.16597e-005
    52	1.33069e-006	2.03465e-005	2.16771e-005
    53	1.34655e-006	2.03486e-005	2.16951e-005
    54	1.36265e-006	2.03508e-005	2.17134e-005
    55	1.37819e-006	2.0353e-005	2.17312e-005
    56	1.3935e-006	2.03552e-005	2.17487e-005
    57	1.40945e-006	2.03575e-005	2.17669e-005
    58	1.42731e-006	2.03598e-005	2.17871e-005
    59	1.44492e-006	2.03621e-005	2.18071e-005
    60	1.4623e-006	2.03645e-005	2.18268e-005
    61	1.47946e-006	2.03669e-005	2.18464e-005
    62	1.49791e-006	2.03694e-005	2.18673e-005
    63	1.51783e-006	2.03719e-005	2.18897e-005
    64	1.53754e-006	2.03745e-005	2.1912e-005
    65	1.55705e-006	2.03771e-005	2.19341e-005
    66	1.57689e-006	2.03797e-005	2.19566e-005
    67	1.59942e-006	2.03825e-005	2.19819e-005
    68	1.62167e-006	2.03854e-005	2.20071e-005
    69	1.644e-006	2.03881e-005	2.20321e-005
    70	1.6686e-006	2.03899e-005	2.20585e-005
    71	1.69534e-006	2.03916e-005	2.2087e-005
    72	1.72199e-006	2.03934e-005	2.21154e-005
    73	1.74917e-006	2.03952e-005	2.21444e-005
    74	1.77973e-006	2.0397e-005	2.21767e-005
    75	1.81025e-006	2.03988e-005	2.2209e-005
    76	1.84131e-006	2.04006e-005	2.22419e-005
    77	1.87584e-006	2.04024e-005	2.22783e-005
    78	1.91079e-006	2.04043e-005	2.23151e-005
    79	1.94647e-006	2.04076e-005	2.23541e-005
    80	1.98715e-006	2.04095e-005	2.23967e-005
    81	2.02811e-006	2.04115e-005	2.24396e-005
    82	2.0738e-006	2.04134e-005	2.24872e-005
    83	2.12076e-006	2.04153e-005	2.2536e-005
    84	2.17301e-006	2.04172e-005	2.25902e-005
    85	2.22728e-006	2.04191e-005	2.26464e-005
    86	2.28798e-006	2.04211e-005	2.2709e-005
    87	2.35361e-006	2.0423e-005	2.27766e-005
    88	2.42495e-006	2.04249e-005	2.28499e-005
    89	2.50378e-006	2.04269e-005	2.29306e-005
    90	2.59028e-006	2.04288e-005	2.30191e-005
    91	2.68255e-006	2.04308e-005	2.31133e-005
    92	2.78088e-006	2.04327e-005	2.32136e-005
    93	2.88515e-006	2.04347e-005	2.33198e-005
    94	2.99523e-006	2.04366e-005	2.34318e-005
    95	3.11097e-006	2.04386e-005	2.35496e-005
    96	3.23134e-006	2.04405e-005	2.36719e-005
    97	3.35744e-006	2.04425e-005	2.38e-005
    98	3.48481e-006	2.04445e-005	2.39293e-005
    99	3.61907e-006	2.04465e-005	2.40655e-005
   100	3.75672e-006	2.04485e-005	2.42052e-005
   101	3.89392e-006	2.04505e-005	2.43444e-005

Measurement: tr2
  step	tr2	FROM	TO
     1	1.80141e-007	6.0141e-005	6.03212e-005
     2	1.7787e-007	6.01414e-005	6.03193e-005
     3	1.77868e-007	6.01417e-005	6.03196e-005
     4	1.76929e-007	6.01421e-005	6.0319e-005
     5	1.76202e-007	6.01425e-005	6.03187e-005
     6	1.75341e-007	6.01429e-005	6.03182e-005
     7	1.77422e-007	6.01432e-005	6.03207e-005
     8	1.77192e-007	6.01438e-005	6.0321e-005
     9	1.86982e-007	6.01453e-005	6.03322e-005
    10	1.85963e-007	6.01435e-005	6.03295e-005
    11	1.89672e-007	6.01452e-005	6.03349e-005
    12	1.86187e-007	6.01454e-005	6.03316e-005
    13	1.85625e-007	6.01459e-005	6.03315e-005
    14	1.90844e-007	6.01463e-005	6.03372e-005
    15	1.92167e-007	6.01475e-005	6.03396e-005
    16	1.94267e-007	6.01473e-005	6.03416e-005
    17	1.94932e-007	6.0148e-005	6.03429e-005
    18	1.95156e-007	6.01485e-005	6.03437e-005
    19	1.97344e-007	6.01485e-005	6.03459e-005
    20	1.9726e-007	6.01472e-005	6.03445e-005
    21	1.98755e-007	6.01489e-005	6.03476e-005
    22	1.99314e-007	6.01492e-005	6.03485e-005
    23	1.92004e-007	6.0154e-005	6.0346e-005
    24	1.97199e-007	6.0152e-005	6.03492e-005
    25	1.9756e-007	6.01525e-005	6.03501e-005
    26	1.97666e-007	6.01532e-005	6.03509e-005
    27	1.97716e-007	6.0154e-005	6.03517e-005
    28	2.00302e-007	6.01547e-005	6.0355e-005
    29	2.025e-007	6.01552e-005	6.03577e-005
    30	2.06295e-007	6.01548e-005	6.03611e-005
    31	2.0714e-007	6.0156e-005	6.03631e-005
    32	2.09318e-007	6.01564e-005	6.03657e-005
    33	2.1164e-007	6.01568e-005	6.03684e-005
    34	2.135e-007	6.01572e-005	6.03707e-005
    35	2.15209e-007	6.01576e-005	6.03728e-005
    36	2.16599e-007	6.0158e-005	6.03746e-005
    37	2.17969e-007	6.01585e-005	6.03764e-005
    38	2.2041e-007	6.01583e-005	6.03787e-005
    39	2.21982e-007	6.01589e-005	6.03809e-005
    40	2.23513e-007	6.01595e-005	6.0383e-005
    41	2.24977e-007	6.01602e-005	6.03852e-005
    42	2.26393e-007	6.01609e-005	6.03873e-005
    43	2.27756e-007	6.01617e-005	6.03895e-005
    44	2.29061e-007	6.01626e-005	6.03916e-005
    45	2.30299e-007	6.01635e-005	6.03938e-005
    46	2.31777e-007	6.01644e-005	6.03962e-005
    47	2.33773e-007	6.01647e-005	6.03985e-005
    48	2.31126e-007	6.01697e-005	6.04009e-005
    49	2.31287e-007	6.01705e-005	6.04017e-005
    50	2.34246e-007	6.01714e-005	6.04057e-005
    51	2.36736e-007	6.01713e-005	6.04081e-005
    52	2.37803e-007	6.01723e-005	6.04101e-005
    53	2.38493e-007	6.01747e-005	6.04132e-005
    54	2.36977e-007	6.01754e-005	6.04124e-005
    55	2.41378e-007	6.0177e-005	6.04184e-005
    56	2.42617e-007	6.01781e-005	6.04207e-005
    57	2.41295e-007	6.01791e-005	6.04204e-005
    58	2.46696e-007	6.01805e-005	6.04272e-005
    59	2.41748e-007	6.01826e-005	6.04243e-005
    60	2.46124e-007	6.01821e-005	6.04282e-005
    61	2.48253e-007	6.01836e-005	6.04318e-005
    62	2.49344e-007	6.01875e-005	6.04368e-005
    63	2.52429e-007	6.019e-005	6.04424e-005
    64	2.57311e-007	6.01923e-005	6.04496e-005
    65	2.59821e-007	6.01944e-005	6.04542e-005
    66	2.61259e-007	6.01975e-005	6.04587e-005
    67	2.55906e-007	6.02007e-005	6.04566e-005
    68	2.64923e-007	6.0204e-005	6.04689e-005
    69	2.61031e-007	6.02075e-005	6.04686e-005
    70	2.63778e-007	6.02115e-005	6.04753e-005
    71	2.73075e-007	6.02157e-005	6.04888e-005
    72	2.69712e-007	6.02201e-005	6.04898e-005
    73	2.749e-007	6.0225e-005	6.04999e-005
    74	2.7877e-007	6.023e-005	6.05087e-005
    75	2.80186e-007	6.02364e-005	6.05165e-005
    76	2.86405e-007	6.02432e-005	6.05296e-005
    77	2.89838e-007	6.025e-005	6.05398e-005
    78	2.92722e-007	6.02571e-005	6.05498e-005
    79	2.9443e-007	6.02647e-005	6.05592e-005
    80	2.94854e-007	6.02729e-005	6.05677e-005
    81	2.97927e-007	6.02813e-005	6.05792e-005
    82	2.9862e-007	6.02899e-005	6.05886e-005
    83	3.07478e-007	6.02989e-005	6.06064e-005
    84	3.03327e-007	6.03083e-005	6.06116e-005
    85	3.14304e-007	6.03174e-005	6.06317e-005
    86	3.167e-007	6.03272e-005	6.06439e-005
    87	3.21947e-007	6.03368e-005	6.06587e-005
    88	3.26544e-007	6.03464e-005	6.06729e-005
    89	3.31209e-007	6.03558e-005	6.0687e-005
    90	3.36362e-007	6.03652e-005	6.07016e-005
    91	3.42338e-007	6.03739e-005	6.07163e-005
    92	3.46489e-007	6.03842e-005	6.07306e-005
    93	3.54148e-007	6.03937e-005	6.07479e-005
    94	3.59495e-007	6.04034e-005	6.07629e-005
    95	3.67733e-007	6.04117e-005	6.07794e-005
    96	3.76296e-007	6.04192e-005	6.07955e-005
    97	3.84475e-007	6.04288e-005	6.08133e-005
    98	3.89512e-007	6.04386e-005	6.08282e-005
    99	3.92392e-007	6.04492e-005	6.08416e-005
   100	4.00922e-007	6.0458e-005	6.0859e-005
   101	4.1817e-007	6.04652e-005	6.08834e-005

Measurement: vth
  step	v(n004)	at
     1	8.84522	2.05954e-005
     2	8.82479	2.05926e-005
     3	8.79795	2.05958e-005
     4	8.77842	2.05939e-005
     5	8.75671	2.05936e-005
     6	8.73627	2.05923e-005
     7	8.71187	2.0595e-005
     8	8.68964	2.05958e-005
     9	8.66855	2.05958e-005
    10	8.64799	2.05963e-005
    11	8.62812	2.05966e-005
    12	8.60952	2.05964e-005
    13	8.59193	2.05955e-005
    14	8.57175	2.05955e-005
    15	8.55131	2.05968e-005
    16	8.53207	2.05976e-005
    17	8.51232	2.05991e-005
    18	8.49388	2.05996e-005
    19	8.47601	2.06e-005
    20	8.45758	2.06011e-005
    21	8.43976	2.06022e-005
    22	8.4223	2.06028e-005
    23	8.405	2.06037e-005
    24	8.38792	2.06048e-005
    25	8.37301	2.06053e-005
    26	8.36004	2.06045e-005
    27	8.338	2.06072e-005
    28	8.32176	2.06079e-005
    29	8.30603	2.06093e-005
    30	8.28993	2.06099e-005
    31	8.27427	2.06111e-005
    32	8.25879	2.06119e-005
    33	8.24376	2.06133e-005
    34	8.22866	2.06144e-005
    35	8.21374	2.06154e-005
    36	8.199	2.06165e-005
    37	8.18442	2.06175e-005
    38	8.17002	2.06186e-005
    39	8.15578	2.06197e-005
    40	8.14171	2.06208e-005
    41	8.12836	2.06217e-005
    42	8.11451	2.06229e-005
    43	8.10082	2.06241e-005
    44	8.08727	2.06253e-005
    45	8.07388	2.06265e-005
    46	8.06063	2.06277e-005
    47	8.04749	2.06289e-005
    48	8.03445	2.06302e-005
    49	8.02146	2.06315e-005
    50	8.00862	2.06328e-005
    51	7.99593	2.06342e-005
    52	7.98313	2.06355e-005
    53	7.97069	2.06368e-005
    54	7.95839	2.06381e-005
    55	7.94623	2.06394e-005
    56	7.93421	2.06408e-005
    57	7.92232	2.06421e-005
    58	7.91058	2.06435e-005
    59	7.89896	2.06448e-005
    60	7.88749	2.06461e-005
    61	7.87615	2.06475e-005
    62	7.86494	2.06488e-005
    63	7.85386	2.06502e-005
    64	7.84291	2.06515e-005
    65	7.83209	2.06529e-005
    66	7.82141	2.06543e-005
    67	7.8109	2.06556e-005
    68	7.80053	2.0657e-005
    69	7.79031	2.06584e-005
    70	7.78024	2.06597e-005
    71	7.7703	2.06611e-005
    72	7.76051	2.06624e-005
    73	7.75086	2.06638e-005
    74	7.74136	2.06652e-005
    75	7.73199	2.06666e-005
    76	7.72277	2.06679e-005
    77	7.7137	2.06693e-005
    78	7.70477	2.06707e-005
    79	7.69105	2.06727e-005
    80	7.68175	2.06742e-005
    81	7.67254	2.06756e-005
    82	7.66343	2.06771e-005
    83	7.65442	2.06785e-005
    84	7.6455	2.068e-005
    85	7.63667	2.06815e-005
    86	7.62794	2.06829e-005
    87	7.6193	2.06844e-005
    88	7.61075	2.06859e-005
    89	7.60229	2.06874e-005
    90	7.59392	2.06888e-005
    91	7.58565	2.06903e-005
    92	7.57718	2.06918e-005
    93	7.56821	2.06935e-005
    94	7.55932	2.06951e-005
    95	7.55051	2.06967e-005
    96	7.54176	2.06983e-005
    97	7.53309	2.06999e-005
    98	7.52449	2.07015e-005
    99	7.51595	2.07031e-005
   100	7.50749	2.07047e-005
   101	7.4991	2.07064e-005


Date: Mon Mar 21 20:43:47 2022
Total elapsed time: 1.332 seconds.

tnom = 27
temp = 27
method = modified trap
totiter = 2392
traniter = 2367
tranpoints = 1085
accept = 1072
rejected = 13
matrix size = 11
fillins = 0
solver = Normal
Matrix Compiler1: 674 bytes object code size  0.1/0.1/[0.0]
Matrix Compiler2: 847 bytes object code size  0.1/0.1/[0.1]

