Circuit: * C:\Users\user\Documents\LTspiceXVII\file\Montecarlo\monte_SiC.asc

Direct Newton iteration for .op point succeeded.
.step tol1=0
.step tol1=0.01
.step tol1=0.02
.step tol1=0.03
.step tol1=0.04
.step tol1=0.05
.step tol1=0.06
.step tol1=0.07
.step tol1=0.08
.step tol1=0.09
.step tol1=0.1
.step tol1=0.11
.step tol1=0.12
.step tol1=0.13
.step tol1=0.14
.step tol1=0.15
.step tol1=0.16
.step tol1=0.17
.step tol1=0.18
.step tol1=0.19
.step tol1=0.2
.step tol1=0.21
.step tol1=0.22
.step tol1=0.23
.step tol1=0.24
.step tol1=0.25
.step tol1=0.26
.step tol1=0.27
.step tol1=0.28
.step tol1=0.29
.step tol1=0.3
.step tol1=0.31
.step tol1=0.32
.step tol1=0.33
.step tol1=0.34
.step tol1=0.35
.step tol1=0.36
.step tol1=0.37
.step tol1=0.38
.step tol1=0.39
.step tol1=0.4
.step tol1=0.41
.step tol1=0.42
.step tol1=0.43
.step tol1=0.44
.step tol1=0.45
.step tol1=0.46
.step tol1=0.47
.step tol1=0.48
.step tol1=0.49
.step tol1=0.5
.step tol1=0.51
.step tol1=0.52
.step tol1=0.53
.step tol1=0.54
.step tol1=0.55
.step tol1=0.56
.step tol1=0.57
.step tol1=0.58
.step tol1=0.59
.step tol1=0.6
.step tol1=0.61
.step tol1=0.62
.step tol1=0.63
.step tol1=0.64
.step tol1=0.65
.step tol1=0.66
.step tol1=0.67
.step tol1=0.68
.step tol1=0.69
.step tol1=0.7
.step tol1=0.71
.step tol1=0.72
.step tol1=0.73
.step tol1=0.74
.step tol1=0.75
.step tol1=0.76
.step tol1=0.77
.step tol1=0.78
.step tol1=0.79
.step tol1=0.8
.step tol1=0.81
.step tol1=0.82
.step tol1=0.83
.step tol1=0.84
.step tol1=0.85
.step tol1=0.86
.step tol1=0.87
.step tol1=0.88
.step tol1=0.89
.step tol1=0.9
.step tol1=0.91
.step tol1=0.92
.step tol1=0.93
.step tol1=0.94
.step tol1=0.95
.step tol1=0.96
.step tol1=0.97
.step tol1=0.98
.step tol1=0.99
.step tol1=1


Measurement: imax
  step	MAX(-i(v1))	FROM	TO
     1	4.64401	0	0.0001
     2	4.64401	0	0.0001
     3	4.64401	0	0.0001
     4	4.64401	0	0.0001
     5	4.64401	0	0.0001
     6	4.64401	0	0.0001
     7	4.64401	0	0.0001
     8	4.64401	0	0.0001
     9	4.64401	0	0.0001
    10	4.64401	0	0.0001
    11	4.64401	0	0.0001
    12	4.64401	0	0.0001
    13	4.64401	0	0.0001
    14	4.64401	0	0.0001
    15	4.64401	0	0.0001
    16	4.64401	0	0.0001
    17	4.64401	0	0.0001
    18	4.64401	0	0.0001
    19	4.64401	0	0.0001
    20	4.64401	0	0.0001
    21	4.64401	0	0.0001
    22	4.64401	0	0.0001
    23	4.64401	0	0.0001
    24	4.64401	0	0.0001
    25	4.64401	0	0.0001
    26	4.64401	0	0.0001
    27	4.64401	0	0.0001
    28	4.64401	0	0.0001
    29	4.64401	0	0.0001
    30	4.64401	0	0.0001
    31	4.64401	0	0.0001
    32	4.64401	0	0.0001
    33	4.64401	0	0.0001
    34	4.64401	0	0.0001
    35	4.64401	0	0.0001
    36	4.64401	0	0.0001
    37	4.64401	0	0.0001
    38	4.64401	0	0.0001
    39	4.64401	0	0.0001
    40	4.64401	0	0.0001
    41	4.64401	0	0.0001
    42	4.64401	0	0.0001
    43	4.64401	0	0.0001
    44	4.64401	0	0.0001
    45	4.64401	0	0.0001
    46	4.64401	0	0.0001
    47	4.64401	0	0.0001
    48	4.64401	0	0.0001
    49	4.64401	0	0.0001
    50	4.64401	0	0.0001
    51	4.64401	0	0.0001
    52	4.64401	0	0.0001
    53	4.64401	0	0.0001
    54	4.64401	0	0.0001
    55	4.64401	0	0.0001
    56	4.64401	0	0.0001
    57	4.64401	0	0.0001
    58	4.64401	0	0.0001
    59	4.64401	0	0.0001
    60	4.64401	0	0.0001
    61	4.64401	0	0.0001
    62	4.64401	0	0.0001
    63	4.64401	0	0.0001
    64	4.64401	0	0.0001
    65	4.64401	0	0.0001
    66	4.64401	0	0.0001
    67	4.64401	0	0.0001
    68	4.64401	0	0.0001
    69	4.64401	0	0.0001
    70	4.64401	0	0.0001
    71	4.64401	0	0.0001
    72	4.64401	0	0.0001
    73	4.64401	0	0.0001
    74	4.64401	0	0.0001
    75	4.64401	0	0.0001
    76	4.64401	0	0.0001
    77	4.64401	0	0.0001
    78	4.64401	0	0.0001
    79	4.64401	0	0.0001
    80	4.64401	0	0.0001
    81	4.64401	0	0.0001
    82	4.64401	0	0.0001
    83	4.64401	0	0.0001
    84	4.64401	0	0.0001
    85	4.64401	0	0.0001
    86	4.64401	0	0.0001
    87	4.64401	0	0.0001
    88	4.64401	0	0.0001
    89	4.64401	0	0.0001
    90	4.64401	0	0.0001
    91	4.64401	0	0.0001
    92	4.64401	0	0.0001
    93	4.64401	0	0.0001
    94	4.64401	0	0.0001
    95	4.64401	0	0.0001
    96	4.64401	0	0.0001
    97	4.64401	0	0.0001
    98	4.64401	0	0.0001
    99	4.64401	0	0.0001
   100	4.64401	0	0.0001
   101	4.64401	0	0.0001

Measurement: tr1
  step	tr1	FROM	TO
     1	7.66013e-007	2.02475e-005	2.10135e-005
     2	7.66014e-007	2.02475e-005	2.10135e-005
     3	7.66014e-007	2.02475e-005	2.10135e-005
     4	7.66014e-007	2.02475e-005	2.10135e-005
     5	7.66015e-007	2.02475e-005	2.10135e-005
     6	7.66016e-007	2.02475e-005	2.10135e-005
     7	7.66016e-007	2.02475e-005	2.10135e-005
     8	7.66017e-007	2.02475e-005	2.10135e-005
     9	7.66017e-007	2.02475e-005	2.10135e-005
    10	7.66018e-007	2.02475e-005	2.10135e-005
    11	7.66018e-007	2.02475e-005	2.10135e-005
    12	7.66019e-007	2.02475e-005	2.10135e-005
    13	7.66019e-007	2.02475e-005	2.10135e-005
    14	7.6602e-007	2.02475e-005	2.10135e-005
    15	7.66021e-007	2.02475e-005	2.10135e-005
    16	7.66021e-007	2.02475e-005	2.10135e-005
    17	7.66022e-007	2.02475e-005	2.10135e-005
    18	7.66022e-007	2.02475e-005	2.10135e-005
    19	7.66023e-007	2.02475e-005	2.10135e-005
    20	7.66023e-007	2.02475e-005	2.10135e-005
    21	7.66024e-007	2.02475e-005	2.10135e-005
    22	7.66024e-007	2.02475e-005	2.10135e-005
    23	7.66025e-007	2.02475e-005	2.10135e-005
    24	7.66026e-007	2.02475e-005	2.10135e-005
    25	7.66026e-007	2.02475e-005	2.10135e-005
    26	7.66027e-007	2.02475e-005	2.10135e-005
    27	7.66027e-007	2.02475e-005	2.10135e-005
    28	7.66028e-007	2.02475e-005	2.10135e-005
    29	7.66028e-007	2.02475e-005	2.10135e-005
    30	7.66029e-007	2.02475e-005	2.10135e-005
    31	7.66029e-007	2.02475e-005	2.10135e-005
    32	7.6603e-007	2.02475e-005	2.10135e-005
    33	7.6603e-007	2.02475e-005	2.10135e-005
    34	7.66031e-007	2.02475e-005	2.10135e-005
    35	7.66031e-007	2.02475e-005	2.10135e-005
    36	7.66032e-007	2.02475e-005	2.10135e-005
    37	7.66033e-007	2.02475e-005	2.10135e-005
    38	7.66033e-007	2.02475e-005	2.10135e-005
    39	7.66034e-007	2.02475e-005	2.10135e-005
    40	7.66034e-007	2.02475e-005	2.10135e-005
    41	7.66035e-007	2.02475e-005	2.10135e-005
    42	7.66035e-007	2.02475e-005	2.10135e-005
    43	7.66036e-007	2.02475e-005	2.10135e-005
    44	7.66037e-007	2.02475e-005	2.10135e-005
    45	7.66037e-007	2.02475e-005	2.10135e-005
    46	7.66038e-007	2.02475e-005	2.10135e-005
    47	7.66038e-007	2.02475e-005	2.10135e-005
    48	7.66039e-007	2.02475e-005	2.10135e-005
    49	7.66039e-007	2.02475e-005	2.10135e-005
    50	7.6604e-007	2.02475e-005	2.10135e-005
    51	7.6604e-007	2.02475e-005	2.10135e-005
    52	7.66041e-007	2.02475e-005	2.10136e-005
    53	7.66041e-007	2.02475e-005	2.10136e-005
    54	7.66042e-007	2.02475e-005	2.10136e-005
    55	7.66042e-007	2.02475e-005	2.10136e-005
    56	7.66043e-007	2.02475e-005	2.10136e-005
    57	7.66043e-007	2.02475e-005	2.10136e-005
    58	7.66044e-007	2.02475e-005	2.10136e-005
    59	7.66045e-007	2.02475e-005	2.10136e-005
    60	7.66045e-007	2.02475e-005	2.10136e-005
    61	7.66046e-007	2.02475e-005	2.10136e-005
    62	7.66046e-007	2.02475e-005	2.10136e-005
    63	7.66047e-007	2.02475e-005	2.10136e-005
    64	7.66047e-007	2.02475e-005	2.10136e-005
    65	7.66048e-007	2.02475e-005	2.10136e-005
    66	7.66048e-007	2.02475e-005	2.10136e-005
    67	7.66049e-007	2.02475e-005	2.10136e-005
    68	7.66049e-007	2.02475e-005	2.10136e-005
    69	7.6605e-007	2.02475e-005	2.10136e-005
    70	7.6605e-007	2.02475e-005	2.10136e-005
    71	7.66051e-007	2.02475e-005	2.10136e-005
    72	7.66052e-007	2.02475e-005	2.10136e-005
    73	7.66052e-007	2.02475e-005	2.10136e-005
    74	7.66053e-007	2.02475e-005	2.10136e-005
    75	7.66053e-007	2.02475e-005	2.10136e-005
    76	7.66054e-007	2.02475e-005	2.10136e-005
    77	7.66054e-007	2.02475e-005	2.10136e-005
    78	7.66055e-007	2.02475e-005	2.10136e-005
    79	7.66055e-007	2.02475e-005	2.10136e-005
    80	7.66056e-007	2.02475e-005	2.10136e-005
    81	7.66056e-007	2.02475e-005	2.10136e-005
    82	7.66057e-007	2.02475e-005	2.10136e-005
    83	7.66057e-007	2.02475e-005	2.10136e-005
    84	7.66058e-007	2.02475e-005	2.10136e-005
    85	7.66059e-007	2.02475e-005	2.10136e-005
    86	7.66059e-007	2.02475e-005	2.10136e-005
    87	7.6606e-007	2.02475e-005	2.10136e-005
    88	7.6606e-007	2.02475e-005	2.10136e-005
    89	7.66061e-007	2.02475e-005	2.10136e-005
    90	7.66061e-007	2.02475e-005	2.10136e-005
    91	7.66062e-007	2.02475e-005	2.10136e-005
    92	7.66062e-007	2.02475e-005	2.10136e-005
    93	7.66063e-007	2.02475e-005	2.10136e-005
    94	7.66063e-007	2.02475e-005	2.10136e-005
    95	7.66064e-007	2.02475e-005	2.10136e-005
    96	7.66064e-007	2.02475e-005	2.10136e-005
    97	7.66065e-007	2.02475e-005	2.10136e-005
    98	7.66066e-007	2.02475e-005	2.10136e-005
    99	7.66066e-007	2.02475e-005	2.10136e-005
   100	7.66066e-007	2.02475e-005	2.10136e-005
   101	7.66067e-007	2.02475e-005	2.10136e-005

Measurement: tr2
  step	tr2	FROM	TO
     1	1.80141e-007	6.0141e-005	6.03212e-005
     2	1.78943e-007	6.0141e-005	6.032e-005
     3	1.76651e-007	6.01411e-005	6.03177e-005
     4	1.79827e-007	6.01411e-005	6.03209e-005
     5	1.71597e-007	6.01411e-005	6.03126e-005
     6	1.69636e-007	6.01411e-005	6.03107e-005
     7	1.78927e-007	6.01411e-005	6.032e-005
     8	1.76193e-007	6.01411e-005	6.03172e-005
     9	1.77866e-007	6.01411e-005	6.03189e-005
    10	1.78839e-007	6.01411e-005	6.03199e-005
    11	1.78467e-007	6.01411e-005	6.03195e-005
    12	1.75625e-007	6.01411e-005	6.03167e-005
    13	1.7517e-007	6.01411e-005	6.03162e-005
    14	1.7603e-007	6.01411e-005	6.03171e-005
    15	1.71419e-007	6.01411e-005	6.03125e-005
    16	1.7723e-007	6.01411e-005	6.03183e-005
    17	1.73819e-007	6.01411e-005	6.03149e-005
    18	1.76018e-007	6.01411e-005	6.03171e-005
    19	1.76058e-007	6.01411e-005	6.03171e-005
    20	1.76097e-007	6.01411e-005	6.03172e-005
    21	1.76137e-007	6.01411e-005	6.03172e-005
    22	1.76176e-007	6.01411e-005	6.03172e-005
    23	1.76215e-007	6.01411e-005	6.03173e-005
    24	1.76254e-007	6.01411e-005	6.03173e-005
    25	1.76292e-007	6.01411e-005	6.03174e-005
    26	1.76331e-007	6.01411e-005	6.03174e-005
    27	1.76369e-007	6.01411e-005	6.03174e-005
    28	1.76408e-007	6.01411e-005	6.03175e-005
    29	1.76446e-007	6.01411e-005	6.03175e-005
    30	1.76484e-007	6.01411e-005	6.03176e-005
    31	1.76521e-007	6.01411e-005	6.03176e-005
    32	1.76559e-007	6.01411e-005	6.03176e-005
    33	1.76596e-007	6.01411e-005	6.03177e-005
    34	1.76633e-007	6.01411e-005	6.03177e-005
    35	1.7667e-007	6.01411e-005	6.03177e-005
    36	1.76707e-007	6.01411e-005	6.03178e-005
    37	1.76744e-007	6.01411e-005	6.03178e-005
    38	1.7678e-007	6.01411e-005	6.03179e-005
    39	1.76817e-007	6.01411e-005	6.03179e-005
    40	1.76853e-007	6.01411e-005	6.03179e-005
    41	1.76889e-007	6.01411e-005	6.0318e-005
    42	1.76925e-007	6.01411e-005	6.0318e-005
    43	1.7696e-007	6.01411e-005	6.0318e-005
    44	1.76996e-007	6.01411e-005	6.03181e-005
    45	1.77031e-007	6.01411e-005	6.03181e-005
    46	1.77066e-007	6.01411e-005	6.03182e-005
    47	1.77101e-007	6.01411e-005	6.03182e-005
    48	1.77136e-007	6.01411e-005	6.03182e-005
    49	1.7717e-007	6.01411e-005	6.03183e-005
    50	1.77205e-007	6.01411e-005	6.03183e-005
    51	1.77239e-007	6.01411e-005	6.03183e-005
    52	1.77273e-007	6.01411e-005	6.03184e-005
    53	1.77307e-007	6.01411e-005	6.03184e-005
    54	1.77341e-007	6.01411e-005	6.03184e-005
    55	1.77374e-007	6.01411e-005	6.03185e-005
    56	1.77407e-007	6.01411e-005	6.03185e-005
    57	1.77441e-007	6.01411e-005	6.03185e-005
    58	1.77474e-007	6.01411e-005	6.03186e-005
    59	1.77506e-007	6.01411e-005	6.03186e-005
    60	1.77539e-007	6.01411e-005	6.03186e-005
    61	1.77571e-007	6.01411e-005	6.03187e-005
    62	1.77604e-007	6.01411e-005	6.03187e-005
    63	1.77636e-007	6.01411e-005	6.03187e-005
    64	1.77668e-007	6.01411e-005	6.03188e-005
    65	1.777e-007	6.01411e-005	6.03188e-005
    66	1.77731e-007	6.01411e-005	6.03188e-005
    67	1.77763e-007	6.01411e-005	6.03189e-005
    68	1.77794e-007	6.01411e-005	6.03189e-005
    69	1.77825e-007	6.01411e-005	6.03189e-005
    70	1.77856e-007	6.01411e-005	6.0319e-005
    71	1.77887e-007	6.01411e-005	6.0319e-005
    72	1.77917e-007	6.01411e-005	6.0319e-005
    73	1.77948e-007	6.01411e-005	6.03191e-005
    74	1.77978e-007	6.01411e-005	6.03191e-005
    75	1.78008e-007	6.01411e-005	6.03191e-005
    76	1.78038e-007	6.01411e-005	6.03191e-005
    77	1.78068e-007	6.01411e-005	6.03192e-005
    78	1.78097e-007	6.01411e-005	6.03192e-005
    79	1.78127e-007	6.01411e-005	6.03192e-005
    80	1.78156e-007	6.01411e-005	6.03193e-005
    81	1.78185e-007	6.01411e-005	6.03193e-005
    82	1.78214e-007	6.01411e-005	6.03193e-005
    83	1.78243e-007	6.01411e-005	6.03194e-005
    84	1.78272e-007	6.01411e-005	6.03194e-005
    85	1.783e-007	6.01411e-005	6.03194e-005
    86	1.78328e-007	6.01411e-005	6.03194e-005
    87	1.78357e-007	6.01411e-005	6.03195e-005
    88	1.78385e-007	6.01411e-005	6.03195e-005
    89	1.78413e-007	6.01411e-005	6.03195e-005
    90	1.7844e-007	6.01411e-005	6.03196e-005
    91	1.78468e-007	6.01411e-005	6.03196e-005
    92	1.78495e-007	6.01411e-005	6.03196e-005
    93	1.78523e-007	6.01411e-005	6.03196e-005
    94	1.7855e-007	6.01411e-005	6.03197e-005
    95	1.78577e-007	6.01411e-005	6.03197e-005
    96	1.78604e-007	6.01411e-005	6.03197e-005
    97	1.7863e-007	6.01411e-005	6.03198e-005
    98	1.78657e-007	6.01411e-005	6.03198e-005
    99	1.78683e-007	6.01411e-005	6.03198e-005
   100	1.78709e-007	6.01411e-005	6.03198e-005
   101	1.78708e-007	6.01411e-005	6.03198e-005

Measurement: vth
  step	v(n004)	at
     1	8.84522	2.05954e-005
     2	8.84522	2.05954e-005
     3	8.84523	2.05954e-005
     4	8.84523	2.05954e-005
     5	8.84523	2.05954e-005
     6	8.84524	2.05954e-005
     7	8.84524	2.05954e-005
     8	8.84524	2.05954e-005
     9	8.84525	2.05954e-005
    10	8.84525	2.05954e-005
    11	8.84525	2.05954e-005
    12	8.84525	2.05954e-005
    13	8.84526	2.05954e-005
    14	8.84526	2.05954e-005
    15	8.84526	2.05954e-005
    16	8.84527	2.05954e-005
    17	8.84527	2.05954e-005
    18	8.84527	2.05954e-005
    19	8.84528	2.05954e-005
    20	8.84528	2.05954e-005
    21	8.84528	2.05954e-005
    22	8.84529	2.05954e-005
    23	8.84529	2.05954e-005
    24	8.84529	2.05954e-005
    25	8.8453	2.05954e-005
    26	8.8453	2.05954e-005
    27	8.8453	2.05954e-005
    28	8.84531	2.05954e-005
    29	8.84531	2.05954e-005
    30	8.84531	2.05954e-005
    31	8.84532	2.05955e-005
    32	8.84532	2.05955e-005
    33	8.84532	2.05955e-005
    34	8.84533	2.05955e-005
    35	8.84533	2.05955e-005
    36	8.84533	2.05955e-005
    37	8.84534	2.05955e-005
    38	8.84534	2.05955e-005
    39	8.84534	2.05955e-005
    40	8.84534	2.05955e-005
    41	8.84535	2.05955e-005
    42	8.84535	2.05955e-005
    43	8.84535	2.05955e-005
    44	8.84536	2.05955e-005
    45	8.84536	2.05955e-005
    46	8.84536	2.05955e-005
    47	8.84537	2.05955e-005
    48	8.84537	2.05955e-005
    49	8.84537	2.05955e-005
    50	8.84538	2.05955e-005
    51	8.84538	2.05955e-005
    52	8.84538	2.05955e-005
    53	8.84539	2.05955e-005
    54	8.84539	2.05955e-005
    55	8.84539	2.05955e-005
    56	8.8454	2.05955e-005
    57	8.8454	2.05955e-005
    58	8.8454	2.05955e-005
    59	8.84541	2.05955e-005
    60	8.84541	2.05955e-005
    61	8.84541	2.05955e-005
    62	8.84542	2.05955e-005
    63	8.84542	2.05955e-005
    64	8.84542	2.05955e-005
    65	8.84543	2.05955e-005
    66	8.84543	2.05955e-005
    67	8.84543	2.05955e-005
    68	8.84544	2.05955e-005
    69	8.84544	2.05955e-005
    70	8.84544	2.05955e-005
    71	8.84544	2.05955e-005
    72	8.84545	2.05955e-005
    73	8.84545	2.05955e-005
    74	8.84545	2.05955e-005
    75	8.84546	2.05955e-005
    76	8.84546	2.05955e-005
    77	8.84546	2.05955e-005
    78	8.84547	2.05955e-005
    79	8.84547	2.05955e-005
    80	8.84547	2.05955e-005
    81	8.84548	2.05955e-005
    82	8.84548	2.05955e-005
    83	8.84548	2.05955e-005
    84	8.84549	2.05955e-005
    85	8.84549	2.05955e-005
    86	8.84549	2.05955e-005
    87	8.8455	2.05955e-005
    88	8.8455	2.05955e-005
    89	8.8455	2.05955e-005
    90	8.84551	2.05955e-005
    91	8.84551	2.05955e-005
    92	8.84551	2.05955e-005
    93	8.84552	2.05955e-005
    94	8.84552	2.05955e-005
    95	8.84552	2.05955e-005
    96	8.84553	2.05955e-005
    97	8.84553	2.05955e-005
    98	8.84553	2.05955e-005
    99	8.84554	2.05955e-005
   100	8.84554	2.05955e-005
   101	8.84554	2.05955e-005


Date: Mon Mar 21 20:41:41 2022
Total elapsed time: 1.081 seconds.

tnom = 27
temp = 27
method = modified trap
totiter = 2256
traniter = 2233
tranpoints = 1107
accept = 1087
rejected = 20
matrix size = 11
fillins = 0
solver = Normal
Matrix Compiler1: 674 bytes object code size  0.1/0.1/[0.1]
Matrix Compiler2: 847 bytes object code size  0.1/0.1/[0.0]

