Circuit: * C:\Users\user\Documents\LTspiceXVII\file\Montecarlo\monte_SiC.asc

Direct Newton iteration for .op point succeeded.
.step tol1=0
.step tol1=0.01
.step tol1=0.02
.step tol1=0.03
.step tol1=0.04
.step tol1=0.05
.step tol1=0.06
.step tol1=0.07
.step tol1=0.08
.step tol1=0.09
.step tol1=0.1
.step tol1=0.11
.step tol1=0.12
.step tol1=0.13
.step tol1=0.14
.step tol1=0.15
.step tol1=0.16
.step tol1=0.17
.step tol1=0.18
.step tol1=0.19
.step tol1=0.2
.step tol1=0.21
.step tol1=0.22
.step tol1=0.23
.step tol1=0.24
.step tol1=0.25
.step tol1=0.26
.step tol1=0.27
.step tol1=0.28
.step tol1=0.29
.step tol1=0.3
.step tol1=0.31
.step tol1=0.32
.step tol1=0.33
.step tol1=0.34
.step tol1=0.35
.step tol1=0.36
.step tol1=0.37
.step tol1=0.38
.step tol1=0.39
.step tol1=0.4
.step tol1=0.41
.step tol1=0.42
.step tol1=0.43
.step tol1=0.44
.step tol1=0.45
.step tol1=0.46
.step tol1=0.47
.step tol1=0.48
.step tol1=0.49
.step tol1=0.5
.step tol1=0.51
.step tol1=0.52
.step tol1=0.53
.step tol1=0.54
.step tol1=0.55
.step tol1=0.56
.step tol1=0.57
.step tol1=0.58
.step tol1=0.59
.step tol1=0.6
.step tol1=0.61
.step tol1=0.62
.step tol1=0.63
.step tol1=0.64
.step tol1=0.65
.step tol1=0.66
.step tol1=0.67
.step tol1=0.68
.step tol1=0.69
.step tol1=0.7
.step tol1=0.71
.step tol1=0.72
.step tol1=0.73
.step tol1=0.74
.step tol1=0.75
.step tol1=0.76
.step tol1=0.77
.step tol1=0.78
.step tol1=0.79
.step tol1=0.8
.step tol1=0.81
.step tol1=0.82
.step tol1=0.83
.step tol1=0.84
.step tol1=0.85
.step tol1=0.86
.step tol1=0.87
.step tol1=0.88
.step tol1=0.89
.step tol1=0.9
.step tol1=0.91
.step tol1=0.92
.step tol1=0.93
.step tol1=0.94
.step tol1=0.95
.step tol1=0.96
.step tol1=0.97
.step tol1=0.98
.step tol1=0.99
.step tol1=1


Measurement: imax
  step	MAX(-i(v1))	FROM	TO
     1	4.64401	0	0.0001
     2	4.64285	0	0.0001
     3	4.64169	0	0.0001
     4	4.64054	0	0.0001
     5	4.63938	0	0.0001
     6	4.63823	0	0.0001
     7	4.63707	0	0.0001
     8	4.63592	0	0.0001
     9	4.63476	0	0.0001
    10	4.63361	0	0.0001
    11	4.63246	0	0.0001
    12	4.6313	0	0.0001
    13	4.63015	0	0.0001
    14	4.629	0	0.0001
    15	4.62784	0	0.0001
    16	4.62669	0	0.0001
    17	4.62554	0	0.0001
    18	4.62439	0	0.0001
    19	4.62323	0	0.0001
    20	4.62208	0	0.0001
    21	4.62093	0	0.0001
    22	4.61978	0	0.0001
    23	4.61863	0	0.0001
    24	4.61748	0	0.0001
    25	4.61633	0	0.0001
    26	4.61518	0	0.0001
    27	4.61403	0	0.0001
    28	4.61288	0	0.0001
    29	4.61173	0	0.0001
    30	4.61058	0	0.0001
    31	4.60944	0	0.0001
    32	4.60829	0	0.0001
    33	4.60714	0	0.0001
    34	4.60599	0	0.0001
    35	4.60485	0	0.0001
    36	4.6037	0	0.0001
    37	4.60255	0	0.0001
    38	4.60141	0	0.0001
    39	4.60026	0	0.0001
    40	4.59911	0	0.0001
    41	4.59797	0	0.0001
    42	4.59682	0	0.0001
    43	4.59568	0	0.0001
    44	4.59453	0	0.0001
    45	4.59339	0	0.0001
    46	4.59225	0	0.0001
    47	4.5911	0	0.0001
    48	4.58996	0	0.0001
    49	4.58882	0	0.0001
    50	4.58768	0	0.0001
    51	4.58653	0	0.0001
    52	4.58539	0	0.0001
    53	4.58425	0	0.0001
    54	4.58311	0	0.0001
    55	4.58197	0	0.0001
    56	4.58083	0	0.0001
    57	4.57969	0	0.0001
    58	4.57855	0	0.0001
    59	4.57741	0	0.0001
    60	4.57627	0	0.0001
    61	4.57513	0	0.0001
    62	4.57399	0	0.0001
    63	4.57285	0	0.0001
    64	4.57171	0	0.0001
    65	4.57058	0	0.0001
    66	4.56944	0	0.0001
    67	4.5683	0	0.0001
    68	4.56716	0	0.0001
    69	4.56603	0	0.0001
    70	4.56489	0	0.0001
    71	4.56376	0	0.0001
    72	4.56262	0	0.0001
    73	4.56149	0	0.0001
    74	4.56035	0	0.0001
    75	4.55922	0	0.0001
    76	4.55808	0	0.0001
    77	4.55695	0	0.0001
    78	4.55581	0	0.0001
    79	4.55468	0	0.0001
    80	4.55355	0	0.0001
    81	4.55242	0	0.0001
    82	4.55128	0	0.0001
    83	4.55015	0	0.0001
    84	4.54902	0	0.0001
    85	4.54789	0	0.0001
    86	4.54676	0	0.0001
    87	4.54563	0	0.0001
    88	4.5445	0	0.0001
    89	4.54337	0	0.0001
    90	4.54224	0	0.0001
    91	4.54111	0	0.0001
    92	4.53998	0	0.0001
    93	4.53886	0	0.0001
    94	4.53773	0	0.0001
    95	4.5366	0	0.0001
    96	4.53547	0	0.0001
    97	4.53435	0	0.0001
    98	4.53322	0	0.0001
    99	4.53209	0	0.0001
   100	4.53097	0	0.0001
   101	4.52984	0	0.0001

Measurement: tr1
  step	tr1	FROM	TO
     1	7.66013e-007	2.02475e-005	2.10135e-005
     2	7.65864e-007	2.02475e-005	2.10133e-005
     3	7.65715e-007	2.02475e-005	2.10132e-005
     4	7.65566e-007	2.02475e-005	2.1013e-005
     5	7.65417e-007	2.02474e-005	2.10129e-005
     6	7.65268e-007	2.02474e-005	2.10127e-005
     7	7.65119e-007	2.02474e-005	2.10125e-005
     8	7.6497e-007	2.02474e-005	2.10124e-005
     9	7.64821e-007	2.02474e-005	2.10122e-005
    10	7.64672e-007	2.02474e-005	2.1012e-005
    11	7.64523e-007	2.02474e-005	2.10119e-005
    12	7.64374e-007	2.02473e-005	2.10117e-005
    13	7.64225e-007	2.02473e-005	2.10116e-005
    14	7.64076e-007	2.02473e-005	2.10114e-005
    15	7.63927e-007	2.02473e-005	2.10112e-005
    16	7.63777e-007	2.02473e-005	2.10111e-005
    17	7.63628e-007	2.02473e-005	2.10109e-005
    18	7.63479e-007	2.02473e-005	2.10107e-005
    19	7.6333e-007	2.02473e-005	2.10106e-005
    20	7.63181e-007	2.02472e-005	2.10104e-005
    21	7.63032e-007	2.02472e-005	2.10103e-005
    22	7.62882e-007	2.02472e-005	2.10101e-005
    23	7.62733e-007	2.02472e-005	2.10099e-005
    24	7.62584e-007	2.02472e-005	2.10098e-005
    25	7.62435e-007	2.02472e-005	2.10096e-005
    26	7.62285e-007	2.02472e-005	2.10095e-005
    27	7.62136e-007	2.02472e-005	2.10093e-005
    28	7.61987e-007	2.02471e-005	2.10091e-005
    29	7.61837e-007	2.02471e-005	2.1009e-005
    30	7.61688e-007	2.02471e-005	2.10088e-005
    31	7.61539e-007	2.02471e-005	2.10086e-005
    32	7.61389e-007	2.02471e-005	2.10085e-005
    33	7.6124e-007	2.02471e-005	2.10083e-005
    34	7.61091e-007	2.02471e-005	2.10082e-005
    35	7.60941e-007	2.0247e-005	2.1008e-005
    36	7.60792e-007	2.0247e-005	2.10078e-005
    37	7.60642e-007	2.0247e-005	2.10077e-005
    38	7.60493e-007	2.0247e-005	2.10075e-005
    39	7.60344e-007	2.0247e-005	2.10073e-005
    40	7.60194e-007	2.0247e-005	2.10072e-005
    41	7.60045e-007	2.0247e-005	2.1007e-005
    42	7.59895e-007	2.0247e-005	2.10068e-005
    43	7.59746e-007	2.02469e-005	2.10067e-005
    44	7.59596e-007	2.02469e-005	2.10065e-005
    45	7.59447e-007	2.02469e-005	2.10064e-005
    46	7.59297e-007	2.02469e-005	2.10062e-005
    47	7.59148e-007	2.02469e-005	2.1006e-005
    48	7.58998e-007	2.02469e-005	2.10059e-005
    49	7.58849e-007	2.02469e-005	2.10057e-005
    50	7.58699e-007	2.02468e-005	2.10055e-005
    51	7.5855e-007	2.02468e-005	2.10054e-005
    52	7.58401e-007	2.02468e-005	2.10052e-005
    53	7.58251e-007	2.02468e-005	2.10051e-005
    54	7.58101e-007	2.02468e-005	2.10049e-005
    55	7.57952e-007	2.02468e-005	2.10047e-005
    56	7.57802e-007	2.02468e-005	2.10046e-005
    57	7.57653e-007	2.02468e-005	2.10044e-005
    58	7.57503e-007	2.02467e-005	2.10042e-005
    59	7.57353e-007	2.02467e-005	2.10041e-005
    60	7.57204e-007	2.02467e-005	2.10039e-005
    61	7.57054e-007	2.02467e-005	2.10038e-005
    62	7.56904e-007	2.02467e-005	2.10036e-005
    63	7.56755e-007	2.02467e-005	2.10034e-005
    64	7.56605e-007	2.02467e-005	2.10033e-005
    65	7.56456e-007	2.02467e-005	2.10031e-005
    66	7.56306e-007	2.02466e-005	2.10029e-005
    67	7.56156e-007	2.02466e-005	2.10028e-005
    68	7.56007e-007	2.02466e-005	2.10026e-005
    69	7.55857e-007	2.02466e-005	2.10025e-005
    70	7.55707e-007	2.02466e-005	2.10023e-005
    71	7.55558e-007	2.02466e-005	2.10021e-005
    72	7.55408e-007	2.02466e-005	2.1002e-005
    73	7.55259e-007	2.02465e-005	2.10018e-005
    74	7.55109e-007	2.02465e-005	2.10016e-005
    75	7.5496e-007	2.02465e-005	2.10015e-005
    76	7.5481e-007	2.02465e-005	2.10013e-005
    77	7.5466e-007	2.02465e-005	2.10012e-005
    78	7.5451e-007	2.02465e-005	2.1001e-005
    79	7.54361e-007	2.02465e-005	2.10008e-005
    80	7.54211e-007	2.02465e-005	2.10007e-005
    81	7.54061e-007	2.02464e-005	2.10005e-005
    82	7.53912e-007	2.02464e-005	2.10003e-005
    83	7.53762e-007	2.02464e-005	2.10002e-005
    84	7.53612e-007	2.02464e-005	2.1e-005
    85	7.53463e-007	2.02464e-005	2.09999e-005
    86	7.53313e-007	2.02464e-005	2.09997e-005
    87	7.53163e-007	2.02464e-005	2.09995e-005
    88	7.53014e-007	2.02463e-005	2.09994e-005
    89	7.52864e-007	2.02463e-005	2.09992e-005
    90	7.52714e-007	2.02463e-005	2.0999e-005
    91	7.52565e-007	2.02463e-005	2.09989e-005
    92	7.52415e-007	2.02463e-005	2.09987e-005
    93	7.52265e-007	2.02463e-005	2.09985e-005
    94	7.52115e-007	2.02463e-005	2.09984e-005
    95	7.51966e-007	2.02463e-005	2.09982e-005
    96	7.51816e-007	2.02462e-005	2.09981e-005
    97	7.51666e-007	2.02462e-005	2.09979e-005
    98	7.51517e-007	2.02462e-005	2.09977e-005
    99	7.51367e-007	2.02462e-005	2.09976e-005
   100	7.51217e-007	2.02462e-005	2.09974e-005
   101	7.51068e-007	2.02462e-005	2.09972e-005

Measurement: tr2
  step	tr2	FROM	TO
     1	1.80141e-007	6.0141e-005	6.03212e-005
     2	1.79612e-007	6.0141e-005	6.03207e-005
     3	1.72539e-007	6.0141e-005	6.03136e-005
     4	1.79268e-007	6.0141e-005	6.03203e-005
     5	1.78137e-007	6.0141e-005	6.03192e-005
     6	1.76932e-007	6.0141e-005	6.0318e-005
     7	1.75658e-007	6.0141e-005	6.03167e-005
     8	1.74319e-007	6.0141e-005	6.03153e-005
     9	1.72921e-007	6.0141e-005	6.03139e-005
    10	1.71467e-007	6.0141e-005	6.03125e-005
    11	1.69961e-007	6.0141e-005	6.0311e-005
    12	1.68407e-007	6.0141e-005	6.03094e-005
    13	1.69666e-007	6.0141e-005	6.03106e-005
    14	1.72861e-007	6.0141e-005	6.03138e-005
    15	1.69373e-007	6.0141e-005	6.03103e-005
    16	1.70296e-007	6.0141e-005	6.03113e-005
    17	1.712e-007	6.0141e-005	6.03122e-005
    18	1.72084e-007	6.0141e-005	6.0313e-005
    19	1.72947e-007	6.01409e-005	6.03139e-005
    20	1.73788e-007	6.01409e-005	6.03147e-005
    21	1.732e-007	6.01409e-005	6.03141e-005
    22	1.68078e-007	6.01409e-005	6.0309e-005
    23	1.70095e-007	6.01409e-005	6.0311e-005
    24	1.78679e-007	6.01409e-005	6.03196e-005
    25	1.77081e-007	6.01409e-005	6.0318e-005
    26	1.80564e-007	6.01409e-005	6.03215e-005
    27	1.79672e-007	6.01409e-005	6.03206e-005
    28	1.76897e-007	6.01409e-005	6.03178e-005
    29	1.7684e-007	6.01409e-005	6.03177e-005
    30	1.78939e-007	6.01409e-005	6.03198e-005
    31	1.75523e-007	6.01409e-005	6.03164e-005
    32	1.6912e-007	6.01409e-005	6.031e-005
    33	1.78667e-007	6.01409e-005	6.03195e-005
    34	1.78267e-007	6.01409e-005	6.03191e-005
    35	1.79014e-007	6.01409e-005	6.03199e-005
    36	1.79271e-007	6.01409e-005	6.03201e-005
    37	1.79518e-007	6.01408e-005	6.03204e-005
    38	1.79753e-007	6.01408e-005	6.03206e-005
    39	1.80491e-007	6.01408e-005	6.03213e-005
    40	1.80719e-007	6.01408e-005	6.03216e-005
    41	1.79874e-007	6.01408e-005	6.03207e-005
    42	1.7949e-007	6.01408e-005	6.03203e-005
    43	1.79106e-007	6.01408e-005	6.03199e-005
    44	1.7871e-007	6.01408e-005	6.03195e-005
    45	1.78903e-007	6.01408e-005	6.03197e-005
    46	1.78478e-007	6.01408e-005	6.03193e-005
    47	1.78041e-007	6.01408e-005	6.03188e-005
    48	1.77593e-007	6.01408e-005	6.03184e-005
    49	1.77134e-007	6.01408e-005	6.03179e-005
    50	1.76664e-007	6.01408e-005	6.03174e-005
    51	1.76184e-007	6.01408e-005	6.0317e-005
    52	1.75693e-007	6.01408e-005	6.03165e-005
    53	1.75193e-007	6.01408e-005	6.0316e-005
    54	1.74684e-007	6.01408e-005	6.03154e-005
    55	1.74164e-007	6.01408e-005	6.03149e-005
    56	1.73634e-007	6.01407e-005	6.03144e-005
    57	1.73096e-007	6.01407e-005	6.03138e-005
    58	1.7255e-007	6.01407e-005	6.03133e-005
    59	1.71995e-007	6.01407e-005	6.03127e-005
    60	1.71432e-007	6.01407e-005	6.03122e-005
    61	1.70861e-007	6.01407e-005	6.03116e-005
    62	1.70282e-007	6.01407e-005	6.0311e-005
    63	1.73707e-007	6.01407e-005	6.03144e-005
    64	1.74103e-007	6.01407e-005	6.03148e-005
    65	1.74492e-007	6.01407e-005	6.03152e-005
    66	1.74875e-007	6.01407e-005	6.03156e-005
    67	1.75252e-007	6.01407e-005	6.03159e-005
    68	1.75621e-007	6.01407e-005	6.03163e-005
    69	1.75984e-007	6.01407e-005	6.03167e-005
    70	1.7634e-007	6.01407e-005	6.0317e-005
    71	1.76689e-007	6.01407e-005	6.03174e-005
    72	1.7703e-007	6.01407e-005	6.03177e-005
    73	1.77364e-007	6.01407e-005	6.0318e-005
    74	1.77691e-007	6.01407e-005	6.03183e-005
    75	1.7737e-007	6.01406e-005	6.0318e-005
    76	1.77674e-007	6.01406e-005	6.03183e-005
    77	1.77971e-007	6.01406e-005	6.03186e-005
    78	1.7826e-007	6.01406e-005	6.03189e-005
    79	1.78542e-007	6.01406e-005	6.03192e-005
    80	1.7883e-007	6.01406e-005	6.03194e-005
    81	1.79114e-007	6.01406e-005	6.03197e-005
    82	1.77556e-007	6.01406e-005	6.03182e-005
    83	1.7037e-007	6.01406e-005	6.0311e-005
    84	1.78161e-007	6.01406e-005	6.03188e-005
    85	1.76195e-007	6.01406e-005	6.03168e-005
    86	1.77525e-007	6.01406e-005	6.03181e-005
    87	1.80109e-007	6.01406e-005	6.03207e-005
    88	1.74288e-007	6.01406e-005	6.03149e-005
    89	1.79327e-007	6.01406e-005	6.03199e-005
    90	1.78745e-007	6.01406e-005	6.03193e-005
    91	1.68303e-007	6.01406e-005	6.03089e-005
    92	1.73356e-007	6.01406e-005	6.03139e-005
    93	1.69161e-007	6.01406e-005	6.03097e-005
    94	1.67979e-007	6.01405e-005	6.03085e-005
    95	1.67284e-007	6.01405e-005	6.03078e-005
    96	1.70267e-007	6.01405e-005	6.03108e-005
    97	1.72825e-007	6.01405e-005	6.03134e-005
    98	1.78108e-007	6.01405e-005	6.03186e-005
    99	1.7584e-007	6.01405e-005	6.03164e-005
   100	1.72913e-007	6.01405e-005	6.03134e-005
   101	1.69225e-007	6.01405e-005	6.03097e-005

Measurement: vth
  step	v(n004)	at
     1	8.84522	2.05954e-005
     2	8.84574	2.05955e-005
     3	8.84627	2.05956e-005
     4	8.84679	2.05957e-005
     5	8.84731	2.05958e-005
     6	8.84784	2.05959e-005
     7	8.84836	2.0596e-005
     8	8.84888	2.05961e-005
     9	8.84941	2.05962e-005
    10	8.84993	2.05963e-005
    11	8.85046	2.05964e-005
    12	8.85098	2.05965e-005
    13	8.8515	2.05966e-005
    14	8.85203	2.05967e-005
    15	8.85255	2.05968e-005
    16	8.85308	2.05969e-005
    17	8.8536	2.0597e-005
    18	8.85412	2.0597e-005
    19	8.85465	2.05971e-005
    20	8.85517	2.05972e-005
    21	8.8557	2.05973e-005
    22	8.85622	2.05974e-005
    23	8.85675	2.05975e-005
    24	8.85727	2.05976e-005
    25	8.8578	2.05977e-005
    26	8.85832	2.05978e-005
    27	8.85885	2.05979e-005
    28	8.85937	2.0598e-005
    29	8.8599	2.05981e-005
    30	8.86043	2.05982e-005
    31	8.86095	2.05983e-005
    32	8.86148	2.05984e-005
    33	8.862	2.05985e-005
    34	8.86253	2.05986e-005
    35	8.86305	2.05987e-005
    36	8.86358	2.05988e-005
    37	8.86411	2.05989e-005
    38	8.86463	2.0599e-005
    39	8.86516	2.05991e-005
    40	8.86568	2.05992e-005
    41	8.86621	2.05993e-005
    42	8.86674	2.05994e-005
    43	8.86726	2.05995e-005
    44	8.86779	2.05996e-005
    45	8.86832	2.05997e-005
    46	8.86884	2.05997e-005
    47	8.86937	2.05998e-005
    48	8.8699	2.05999e-005
    49	8.87043	2.06e-005
    50	8.87095	2.06001e-005
    51	8.87148	2.06002e-005
    52	8.87201	2.06003e-005
    53	8.87253	2.06004e-005
    54	8.87306	2.06005e-005
    55	8.87359	2.06006e-005
    56	8.87412	2.06007e-005
    57	8.87464	2.06008e-005
    58	8.87517	2.06009e-005
    59	8.8757	2.0601e-005
    60	8.87623	2.06011e-005
    61	8.87676	2.06012e-005
    62	8.87728	2.06013e-005
    63	8.87781	2.06014e-005
    64	8.87834	2.06015e-005
    65	8.87887	2.06016e-005
    66	8.8794	2.06017e-005
    67	8.87993	2.06018e-005
    68	8.88045	2.06019e-005
    69	8.88098	2.0602e-005
    70	8.88151	2.06021e-005
    71	8.88204	2.06022e-005
    72	8.88257	2.06023e-005
    73	8.8831	2.06024e-005
    74	8.88363	2.06025e-005
    75	8.88416	2.06026e-005
    76	8.88468	2.06027e-005
    77	8.88521	2.06028e-005
    78	8.88574	2.06029e-005
    79	8.88627	2.0603e-005
    80	8.8868	2.06031e-005
    81	8.88733	2.06032e-005
    82	8.88786	2.06033e-005
    83	8.88839	2.06034e-005
    84	8.88892	2.06035e-005
    85	8.88945	2.06035e-005
    86	8.88998	2.06036e-005
    87	8.89051	2.06037e-005
    88	8.89104	2.06038e-005
    89	8.89157	2.06039e-005
    90	8.8921	2.0604e-005
    91	8.89263	2.06041e-005
    92	8.89316	2.06042e-005
    93	8.89369	2.06043e-005
    94	8.89422	2.06044e-005
    95	8.89475	2.06045e-005
    96	8.89528	2.06046e-005
    97	8.89581	2.06047e-005
    98	8.89634	2.06048e-005
    99	8.89687	2.06049e-005
   100	8.89741	2.0605e-005
   101	8.89794	2.06051e-005


Date: Mon Mar 21 20:43:31 2022
Total elapsed time: 1.423 seconds.

tnom = 27
temp = 27
method = modified trap
totiter = 2435
traniter = 2410
tranpoints = 1103
accept = 1084
rejected = 19
matrix size = 11
fillins = 0
solver = Normal
Matrix Compiler1: 674 bytes object code size  0.1/0.1/[0.0]
Matrix Compiler2: 847 bytes object code size  0.1/0.1/[0.1]

