Circuit: * C:\Users\user\Documents\LTspiceXVII\file\Montecarlo\monte_SiC.asc

Direct Newton iteration for .op point succeeded.
.step tol1=0
.step tol1=0.01
.step tol1=0.02
.step tol1=0.03
.step tol1=0.04
.step tol1=0.05
.step tol1=0.06
.step tol1=0.07
.step tol1=0.08
.step tol1=0.09
.step tol1=0.1
.step tol1=0.11
.step tol1=0.12
.step tol1=0.13
.step tol1=0.14
.step tol1=0.15
.step tol1=0.16
.step tol1=0.17
.step tol1=0.18
.step tol1=0.19
.step tol1=0.2
.step tol1=0.21
.step tol1=0.22
.step tol1=0.23
.step tol1=0.24
.step tol1=0.25
.step tol1=0.26
.step tol1=0.27
.step tol1=0.28
.step tol1=0.29
.step tol1=0.3
.step tol1=0.31
.step tol1=0.32
.step tol1=0.33
.step tol1=0.34
.step tol1=0.35
.step tol1=0.36
.step tol1=0.37
.step tol1=0.38
.step tol1=0.39
.step tol1=0.4
.step tol1=0.41
.step tol1=0.42
.step tol1=0.43
.step tol1=0.44
.step tol1=0.45
.step tol1=0.46
.step tol1=0.47
.step tol1=0.48
.step tol1=0.49
.step tol1=0.5
.step tol1=0.51
.step tol1=0.52
.step tol1=0.53
.step tol1=0.54
.step tol1=0.55
.step tol1=0.56
.step tol1=0.57
.step tol1=0.58
.step tol1=0.59
.step tol1=0.6
.step tol1=0.61
.step tol1=0.62
.step tol1=0.63
.step tol1=0.64
.step tol1=0.65
.step tol1=0.66
.step tol1=0.67
.step tol1=0.68
.step tol1=0.69
.step tol1=0.7
.step tol1=0.71
.step tol1=0.72
.step tol1=0.73
.step tol1=0.74
.step tol1=0.75
.step tol1=0.76
.step tol1=0.77
.step tol1=0.78
.step tol1=0.79
.step tol1=0.8
.step tol1=0.81
.step tol1=0.82
.step tol1=0.83
.step tol1=0.84
.step tol1=0.85
.step tol1=0.86
.step tol1=0.87
.step tol1=0.88
.step tol1=0.89
.step tol1=0.9
.step tol1=0.91
.step tol1=0.92
.step tol1=0.93
.step tol1=0.94
.step tol1=0.95
.step tol1=0.96
.step tol1=0.97
.step tol1=0.98
.step tol1=0.99
.step tol1=1


Measurement: imax
  step	MAX(-i(v1))	FROM	TO
     1	4.64401	0	0.0001
     2	4.59895	0	0.0001
     3	4.55476	0	0.0001
     4	4.51143	0	0.0001
     5	4.46889	0	0.0001
     6	4.4272	0	0.0001
     7	4.38621	0	0.0001
     8	4.34599	0	0.0001
     9	4.30651	0	0.0001
    10	4.26775	0	0.0001
    11	4.22971	0	0.0001
    12	4.19228	0	0.0001
    13	4.15554	0	0.0001
    14	4.11943	0	0.0001
    15	4.08395	0	0.0001
    16	4.04908	0	0.0001
    17	4.01481	0	0.0001
    18	3.9811	0	0.0001
    19	3.94795	0	0.0001
    20	3.91537	0	0.0001
    21	3.8833	0	0.0001
    22	3.85176	0	0.0001
    23	3.82073	0	0.0001
    24	3.79019	0	0.0001
    25	3.76014	0	0.0001
    26	3.73057	0	0.0001
    27	3.70146	0	0.0001
    28	3.67281	0	0.0001
    29	3.64458	0	0.0001
    30	3.61679	0	0.0001
    31	3.58942	0	0.0001
    32	3.56246	0	0.0001
    33	3.53591	0	0.0001
    34	3.50975	0	0.0001
    35	3.48397	0	0.0001
    36	3.45857	0	0.0001
    37	3.43354	0	0.0001
    38	3.40887	0	0.0001
    39	3.38455	0	0.0001
    40	3.3606	0	0.0001
    41	3.33694	0	0.0001
    42	3.31363	0	0.0001
    43	3.29068	0	0.0001
    44	3.26799	0	0.0001
    45	3.24566	0	0.0001
    46	3.22361	0	0.0001
    47	3.20186	0	0.0001
    48	3.1804	0	0.0001
    49	3.15922	0	0.0001
    50	3.1383	0	0.0001
    51	3.11768	0	0.0001
    52	3.09734	0	0.0001
    53	3.07725	0	0.0001
    54	3.05743	0	0.0001
    55	3.03788	0	0.0001
    56	3.01854	0	0.0001
    57	2.99946	0	0.0001
    58	2.98062	0	0.0001
    59	2.96202	0	0.0001
    60	2.94365	0	0.0001
    61	2.9255	0	0.0001
    62	2.90758	0	0.0001
    63	2.88988	0	0.0001
    64	2.87238	0	0.0001
    65	2.8551	0	0.0001
    66	2.83803	0	0.0001
    67	2.82116	0	0.0001
    68	2.80449	0	0.0001
    69	2.78802	0	0.0001
    70	2.77174	0	0.0001
    71	2.75565	0	0.0001
    72	2.73974	0	0.0001
    73	2.72402	0	0.0001
    74	2.70848	0	0.0001
    75	2.69311	0	0.0001
    76	2.67792	0	0.0001
    77	2.6629	0	0.0001
    78	2.64804	0	0.0001
    79	2.63335	0	0.0001
    80	2.61883	0	0.0001
    81	2.60446	0	0.0001
    82	2.59025	0	0.0001
    83	2.57619	0	0.0001
    84	2.56229	0	0.0001
    85	2.54853	0	0.0001
    86	2.53492	0	0.0001
    87	2.52146	0	0.0001
    88	2.50814	0	0.0001
    89	2.49496	0	0.0001
    90	2.48192	0	0.0001
    91	2.46901	0	0.0001
    92	2.45624	0	0.0001
    93	2.44359	0	0.0001
    94	2.43109	0	0.0001
    95	2.41871	0	0.0001
    96	2.40644	0	0.0001
    97	2.3943	0	0.0001
    98	2.38229	0	0.0001
    99	2.3704	0	0.0001
   100	2.35864	0	0.0001
   101	2.34696	0	0.0001

Measurement: tr1
  step	tr1	FROM	TO
     1	7.66013e-007	2.02475e-005	2.10135e-005
     2	7.58711e-007	2.02512e-005	2.10099e-005
     3	7.61977e-007	2.02477e-005	2.10096e-005
     4	7.56432e-007	2.02496e-005	2.10061e-005
     5	7.62028e-007	2.02435e-005	2.10055e-005
     6	7.48951e-007	2.02523e-005	2.10012e-005
     7	7.55896e-007	2.0247e-005	2.10029e-005
     8	7.51673e-007	2.02492e-005	2.10009e-005
     9	7.46988e-007	2.02516e-005	2.09986e-005
    10	7.43343e-007	2.02532e-005	2.09966e-005
    11	7.41719e-007	2.02526e-005	2.09944e-005
    12	7.41116e-007	2.02537e-005	2.09948e-005
    13	7.44299e-007	2.02506e-005	2.09949e-005
    14	7.46425e-007	2.02479e-005	2.09943e-005
    15	7.46317e-007	2.02443e-005	2.09906e-005
    16	7.42476e-007	2.0246e-005	2.09884e-005
    17	7.36839e-007	2.02516e-005	2.09885e-005
    18	7.37142e-007	2.02495e-005	2.09866e-005
    19	7.34172e-007	2.02546e-005	2.09888e-005
    20	7.34341e-007	2.0253e-005	2.09873e-005
    21	7.32856e-007	2.02541e-005	2.0987e-005
    22	7.37268e-007	2.02503e-005	2.09876e-005
    23	7.36834e-007	2.02457e-005	2.09825e-005
    24	7.31498e-007	2.02531e-005	2.09846e-005
    25	7.3289e-007	2.02528e-005	2.09857e-005
    26	7.30763e-007	2.02524e-005	2.09832e-005
    27	7.29758e-007	2.02534e-005	2.09832e-005
    28	7.32391e-007	2.02518e-005	2.09842e-005
    29	7.31676e-007	2.0252e-005	2.09837e-005
    30	7.31001e-007	2.02523e-005	2.09833e-005
    31	7.30355e-007	2.02525e-005	2.09829e-005
    32	7.29738e-007	2.02528e-005	2.09825e-005
    33	7.29149e-007	2.0253e-005	2.09822e-005
    34	7.28588e-007	2.02532e-005	2.09818e-005
    35	7.28053e-007	2.02535e-005	2.09815e-005
    36	7.27544e-007	2.02537e-005	2.09813e-005
    37	7.2706e-007	2.0254e-005	2.0981e-005
    38	7.26601e-007	2.02542e-005	2.09808e-005
    39	7.26166e-007	2.02544e-005	2.09806e-005
    40	7.2582e-007	2.02546e-005	2.09805e-005
    41	7.25413e-007	2.02549e-005	2.09803e-005
    42	7.25047e-007	2.02551e-005	2.09801e-005
    43	7.24722e-007	2.02553e-005	2.098e-005
    44	7.24381e-007	2.02555e-005	2.09799e-005
    45	7.24102e-007	2.02557e-005	2.09798e-005
    46	7.23823e-007	2.02559e-005	2.09797e-005
    47	7.23564e-007	2.02561e-005	2.09797e-005
    48	7.23327e-007	2.02563e-005	2.09796e-005
    49	7.2311e-007	2.02565e-005	2.09796e-005
    50	7.22895e-007	2.02567e-005	2.09796e-005
    51	7.26058e-007	2.02531e-005	2.09792e-005
    52	7.25787e-007	2.02535e-005	2.09793e-005
    53	7.25488e-007	2.02538e-005	2.09793e-005
    54	7.25198e-007	2.02542e-005	2.09794e-005
    55	7.24936e-007	2.02546e-005	2.09795e-005
    56	7.24654e-007	2.02549e-005	2.09796e-005
    57	7.24401e-007	2.02553e-005	2.09797e-005
    58	7.24155e-007	2.02556e-005	2.09798e-005
    59	7.23916e-007	2.0256e-005	2.09799e-005
    60	7.23682e-007	2.02564e-005	2.09801e-005
    61	7.23454e-007	2.02568e-005	2.09802e-005
    62	7.23231e-007	2.02571e-005	2.09804e-005
    63	7.2302e-007	2.02575e-005	2.09806e-005
    64	7.22798e-007	2.02579e-005	2.09807e-005
    65	7.25107e-007	2.02553e-005	2.09804e-005
    66	7.25237e-007	2.02552e-005	2.09804e-005
    67	7.25384e-007	2.02551e-005	2.09805e-005
    68	7.25521e-007	2.02551e-005	2.09806e-005
    69	7.25649e-007	2.0255e-005	2.09806e-005
    70	7.25766e-007	2.0255e-005	2.09807e-005
    71	7.25874e-007	2.02549e-005	2.09808e-005
    72	7.25971e-007	2.02549e-005	2.09809e-005
    73	7.26056e-007	2.02549e-005	2.09809e-005
    74	7.26132e-007	2.02549e-005	2.0981e-005
    75	7.26195e-007	2.02549e-005	2.09811e-005
    76	7.26199e-007	2.02549e-005	2.09811e-005
    77	7.26177e-007	2.0255e-005	2.09812e-005
    78	7.26105e-007	2.02552e-005	2.09813e-005
    79	7.26033e-007	2.02555e-005	2.09815e-005
    80	7.25962e-007	2.02557e-005	2.09816e-005
    81	7.25775e-007	2.02559e-005	2.09817e-005
    82	7.25705e-007	2.02561e-005	2.09818e-005
    83	7.25634e-007	2.02564e-005	2.0982e-005
    84	7.25563e-007	2.02566e-005	2.09822e-005
    85	7.2549e-007	2.02568e-005	2.09823e-005
    86	7.25532e-007	2.02571e-005	2.09826e-005
    87	7.25814e-007	2.02573e-005	2.09831e-005
    88	7.25984e-007	2.02576e-005	2.09835e-005
    89	7.2616e-007	2.02578e-005	2.0984e-005
    90	7.26341e-007	2.02581e-005	2.09844e-005
    91	7.26526e-007	2.02583e-005	2.09849e-005
    92	7.26717e-007	2.02586e-005	2.09853e-005
    93	7.26912e-007	2.02588e-005	2.09858e-005
    94	7.27119e-007	2.02591e-005	2.09862e-005
    95	7.27331e-007	2.02594e-005	2.09867e-005
    96	7.27738e-007	2.02602e-005	2.09879e-005
    97	7.27816e-007	2.02594e-005	2.09873e-005
    98	7.25297e-007	2.02662e-005	2.09915e-005
    99	7.27218e-007	2.02649e-005	2.09921e-005
   100	7.28765e-007	2.02622e-005	2.0991e-005
   101	7.28719e-007	2.02612e-005	2.09899e-005

Measurement: tr2
  step	tr2	FROM	TO
     1	1.80141e-007	6.0141e-005	6.03212e-005
     2	1.72587e-007	6.0141e-005	6.03135e-005
     3	1.79627e-007	6.01408e-005	6.03204e-005
     4	1.67768e-007	6.01406e-005	6.03084e-005
     5	1.74229e-007	6.01405e-005	6.03147e-005
     6	1.71537e-007	6.01404e-005	6.03119e-005
     7	1.7909e-007	6.01394e-005	6.03185e-005
     8	1.68781e-007	6.01409e-005	6.03097e-005
     9	1.70558e-007	6.01405e-005	6.03111e-005
    10	1.69884e-007	6.01398e-005	6.03097e-005
    11	1.7241e-007	6.01395e-005	6.0312e-005
    12	1.71587e-007	6.01419e-005	6.03134e-005
    13	1.7552e-007	6.01389e-005	6.03144e-005
    14	1.69733e-007	6.01371e-005	6.03069e-005
    15	1.6831e-007	6.01395e-005	6.03078e-005
    16	1.70831e-007	6.01394e-005	6.03103e-005
    17	1.71861e-007	6.014e-005	6.03118e-005
    18	1.80319e-007	6.01389e-005	6.03193e-005
    19	1.64283e-007	6.01411e-005	6.03054e-005
    20	1.71997e-007	6.0139e-005	6.0311e-005
    21	1.69897e-007	6.01415e-005	6.03114e-005
    22	1.73824e-007	6.01388e-005	6.03126e-005
    23	1.72069e-007	6.01374e-005	6.03095e-005
    24	1.70007e-007	6.0143e-005	6.0313e-005
    25	1.69476e-007	6.01388e-005	6.03083e-005
    26	1.69917e-007	6.01381e-005	6.03081e-005
    27	1.69405e-007	6.01409e-005	6.03103e-005
    28	1.74538e-007	6.01385e-005	6.0313e-005
    29	1.66643e-007	6.01392e-005	6.03059e-005
    30	1.66316e-007	6.01382e-005	6.03045e-005
    31	1.69755e-007	6.01379e-005	6.03077e-005
    32	1.74482e-007	6.01378e-005	6.03123e-005
    33	1.78537e-007	6.01377e-005	6.03163e-005
    34	1.77057e-007	6.01377e-005	6.03148e-005
    35	1.74573e-007	6.01377e-005	6.03123e-005
    36	1.72611e-007	6.01377e-005	6.03103e-005
    37	1.70795e-007	6.01377e-005	6.03085e-005
    38	1.69061e-007	6.01377e-005	6.03068e-005
    39	1.67435e-007	6.01377e-005	6.03052e-005
    40	1.78216e-007	6.0138e-005	6.03162e-005
    41	1.67385e-007	6.01392e-005	6.03066e-005
    42	1.66793e-007	6.01383e-005	6.03051e-005
    43	1.70079e-007	6.01418e-005	6.03119e-005
    44	1.73346e-007	6.01382e-005	6.03116e-005
    45	1.67355e-007	6.01417e-005	6.03091e-005
    46	1.67396e-007	6.01417e-005	6.03091e-005
    47	1.64709e-007	6.01417e-005	6.03064e-005
    48	1.65386e-007	6.01416e-005	6.0307e-005
    49	1.72597e-007	6.01415e-005	6.03141e-005
    50	1.69399e-007	6.01406e-005	6.031e-005
    51	1.72185e-007	6.01363e-005	6.03085e-005
    52	1.72308e-007	6.01363e-005	6.03086e-005
    53	1.72429e-007	6.01364e-005	6.03088e-005
    54	1.72547e-007	6.01364e-005	6.03089e-005
    55	1.72339e-007	6.01414e-005	6.03137e-005
    56	1.74175e-007	6.01372e-005	6.03114e-005
    57	1.77452e-007	6.01371e-005	6.03146e-005
    58	1.677e-007	6.01399e-005	6.03076e-005
    59	1.69859e-007	6.01384e-005	6.03082e-005
    60	1.76608e-007	6.01371e-005	6.03137e-005
    61	1.78858e-007	6.01371e-005	6.03159e-005
    62	1.73302e-007	6.01371e-005	6.03104e-005
    63	1.69884e-007	6.01397e-005	6.03096e-005
    64	1.70784e-007	6.01378e-005	6.03085e-005
    65	1.73003e-007	6.01355e-005	6.03085e-005
    66	1.73112e-007	6.01363e-005	6.03094e-005
    67	1.73159e-007	6.01362e-005	6.03094e-005
    68	1.73207e-007	6.01362e-005	6.03094e-005
    69	1.73255e-007	6.01362e-005	6.03095e-005
    70	1.73304e-007	6.01362e-005	6.03095e-005
    71	1.73354e-007	6.01362e-005	6.03096e-005
    72	1.73405e-007	6.01362e-005	6.03096e-005
    73	1.73456e-007	6.01362e-005	6.03096e-005
    74	1.73508e-007	6.01362e-005	6.03097e-005
    75	1.73561e-007	6.01362e-005	6.03097e-005
    76	1.73614e-007	6.01362e-005	6.03098e-005
    77	1.73668e-007	6.01362e-005	6.03098e-005
    78	1.73722e-007	6.01362e-005	6.03099e-005
    79	1.73778e-007	6.01361e-005	6.03099e-005
    80	1.7384e-007	6.01361e-005	6.031e-005
    81	1.73905e-007	6.01361e-005	6.031e-005
    82	1.73971e-007	6.01361e-005	6.03101e-005
    83	1.74037e-007	6.01361e-005	6.03102e-005
    84	1.74104e-007	6.01361e-005	6.03102e-005
    85	1.74172e-007	6.01361e-005	6.03103e-005
    86	1.74239e-007	6.01361e-005	6.03104e-005
    87	1.74308e-007	6.01361e-005	6.03104e-005
    88	1.74377e-007	6.01361e-005	6.03105e-005
    89	1.74447e-007	6.01361e-005	6.03106e-005
    90	1.75407e-007	6.01361e-005	6.03115e-005
    91	1.75454e-007	6.01361e-005	6.03116e-005
    92	1.75501e-007	6.01361e-005	6.03116e-005
    93	1.75548e-007	6.01361e-005	6.03116e-005
    94	1.77373e-007	6.01407e-005	6.03181e-005
    95	1.75703e-007	6.0137e-005	6.03127e-005
    96	1.72521e-007	6.01402e-005	6.03128e-005
    97	1.75743e-007	6.01361e-005	6.03118e-005
    98	1.76023e-007	6.01353e-005	6.03113e-005
    99	1.73378e-007	6.01384e-005	6.03117e-005
   100	1.79258e-007	6.01408e-005	6.032e-005
   101	1.78919e-007	6.01399e-005	6.03188e-005

Measurement: vth
  step	v(n004)	at
     1	8.84522	2.05954e-005
     2	8.87161	2.05982e-005
     3	8.89146	2.06074e-005
     4	8.91611	2.06119e-005
     5	8.93746	2.06191e-005
     6	8.96234	2.0624e-005
     7	8.98419	2.06304e-005
     8	9.00915	2.06347e-005
     9	9.0301	2.06434e-005
    10	9.05167	2.06511e-005
    11	9.07377	2.06578e-005
    12	9.09605	2.06649e-005
    13	9.11846	2.06717e-005
    14	9.14105	2.06779e-005
    15	9.16414	2.0682e-005
    16	9.18582	2.06895e-005
    17	9.20726	2.0698e-005
    18	9.22888	2.0706e-005
    19	9.25051	2.07137e-005
    20	9.27158	2.07225e-005
    21	9.29249	2.07321e-005
    22	9.31406	2.0739e-005
    23	9.33428	2.07499e-005
    24	9.35517	2.07598e-005
    25	9.3762	2.07692e-005
    26	9.39701	2.07781e-005
    27	9.41781	2.07877e-005
    28	9.4382	2.07993e-005
    29	9.45879	2.08095e-005
    30	9.47939	2.08196e-005
    31	9.49998	2.08298e-005
    32	9.52045	2.08406e-005
    33	9.54035	2.08545e-005
    34	9.56024	2.08685e-005
    35	9.58013	2.08824e-005
    36	9.60002	2.08963e-005
    37	9.6199	2.09101e-005
    38	9.63979	2.0924e-005
    39	9.65956	2.0939e-005
    40	9.67892	2.09582e-005
    41	9.69834	2.09773e-005
    42	9.71775	2.09964e-005
    43	9.73716	2.10154e-005
    44	9.75653	2.10356e-005
    45	9.77563	2.1062e-005
    46	9.79472	2.10884e-005
    47	9.81382	2.11148e-005
    48	9.83282	2.11458e-005
    49	9.85169	2.11824e-005
    50	9.87055	2.12191e-005
    51	9.8893	2.12664e-005
    52	9.90801	2.13188e-005
    53	9.92664	2.13866e-005
    54	9.94521	2.14715e-005
    55	9.96372	2.15913e-005
    56	9.98216	2.17978e-005
    57	0	0
    58	0	0
    59	0	0
    60	0	0
    61	0	0
    62	0	0
    63	0	0
    64	0	0
    65	0	0
    66	0	0
    67	0	0
    68	0	0
    69	0	0
    70	0	0
    71	0	0
    72	0	0
    73	0	0
    74	0	0
    75	0	0
    76	0	0
    77	0	0
    78	0	0
    79	0	0
    80	0	0
    81	0	0
    82	0	0
    83	0	0
    84	0	0
    85	0	0
    86	0	0
    87	0	0
    88	0	0
    89	0	0
    90	0	0
    91	0	0
    92	0	0
    93	0	0
    94	0	0
    95	0	0
    96	0	0
    97	0	0
    98	0	0
    99	0	0
   100	0	0
   101	0	0


Date: Mon Mar 21 20:42:55 2022
Total elapsed time: 1.123 seconds.

tnom = 27
temp = 27
method = modified trap
totiter = 2417
traniter = 2395
tranpoints = 1099
accept = 1086
rejected = 13
matrix size = 11
fillins = 0
solver = Normal
Matrix Compiler1: 674 bytes object code size  0.1/0.1/[0.1]
Matrix Compiler2: off  [0.0]/0.1/0.1

