Circuit: * C:\Users\user\Documents\LTspiceXVII\file\Montecarlo\monte_SiC.asc

Direct Newton iteration for .op point succeeded.
.step tol1=0
.step tol1=0.01
.step tol1=0.02
.step tol1=0.03
.step tol1=0.04
.step tol1=0.05
.step tol1=0.06
.step tol1=0.07
.step tol1=0.08
.step tol1=0.09
.step tol1=0.1
.step tol1=0.11
.step tol1=0.12
.step tol1=0.13
.step tol1=0.14
.step tol1=0.15
.step tol1=0.16
.step tol1=0.17
.step tol1=0.18
.step tol1=0.19
.step tol1=0.2
.step tol1=0.21
.step tol1=0.22
.step tol1=0.23
.step tol1=0.24
.step tol1=0.25
.step tol1=0.26
.step tol1=0.27
.step tol1=0.28
.step tol1=0.29
.step tol1=0.3
.step tol1=0.31
.step tol1=0.32
.step tol1=0.33
.step tol1=0.34
.step tol1=0.35
.step tol1=0.36
.step tol1=0.37
.step tol1=0.38
.step tol1=0.39
.step tol1=0.4
.step tol1=0.41
.step tol1=0.42
.step tol1=0.43
.step tol1=0.44
.step tol1=0.45
.step tol1=0.46
.step tol1=0.47
.step tol1=0.48
.step tol1=0.49
.step tol1=0.5
.step tol1=0.51
.step tol1=0.52
.step tol1=0.53
.step tol1=0.54
.step tol1=0.55
.step tol1=0.56
.step tol1=0.57
.step tol1=0.58
.step tol1=0.59
.step tol1=0.6
.step tol1=0.61
.step tol1=0.62
.step tol1=0.63
.step tol1=0.64
.step tol1=0.65
.step tol1=0.66
.step tol1=0.67
.step tol1=0.68
.step tol1=0.69
.step tol1=0.7
.step tol1=0.71
.step tol1=0.72
.step tol1=0.73
.step tol1=0.74
.step tol1=0.75
.step tol1=0.76
.step tol1=0.77
.step tol1=0.78
.step tol1=0.79
.step tol1=0.8
.step tol1=0.81
.step tol1=0.82
.step tol1=0.83
.step tol1=0.84
.step tol1=0.85
.step tol1=0.86
.step tol1=0.87
.step tol1=0.88
.step tol1=0.89
.step tol1=0.9
.step tol1=0.91
.step tol1=0.92
.step tol1=0.93
.step tol1=0.94
.step tol1=0.95
.step tol1=0.96
.step tol1=0.97
.step tol1=0.98
.step tol1=0.99
.step tol1=1


Measurement: imax
  step	MAX(-i(v1))	FROM	TO
     1	4.64401	0	0.0001
     2	4.64401	0	0.0001
     3	4.64401	0	0.0001
     4	4.64403	0	0.0001
     5	4.64401	0	0.0001
     6	4.64401	0	0.0001
     7	4.64401	0	0.0001
     8	4.64402	0	0.0001
     9	4.64403	0	0.0001
    10	4.64403	0	0.0001
    11	4.64401	0	0.0001
    12	4.64401	0	0.0001
    13	4.64401	0	0.0001
    14	4.64401	0	0.0001
    15	4.64405	0	0.0001
    16	4.64401	0	0.0001
    17	4.64401	0	0.0001
    18	4.64401	0	0.0001
    19	4.64401	0	0.0001
    20	4.64401	0	0.0001
    21	4.64401	0	0.0001
    22	4.64401	0	0.0001
    23	4.64401	0	0.0001
    24	4.64401	0	0.0001
    25	4.64401	0	0.0001
    26	4.64401	0	0.0001
    27	4.64401	0	0.0001
    28	4.64401	0	0.0001
    29	4.64401	0	0.0001
    30	4.64401	0	0.0001
    31	4.64401	0	0.0001
    32	4.64401	0	0.0001
    33	4.64401	0	0.0001
    34	4.64401	0	0.0001
    35	4.64401	0	0.0001
    36	4.64401	0	0.0001
    37	4.64401	0	0.0001
    38	4.64401	0	0.0001
    39	4.64403	0	0.0001
    40	4.64401	0	0.0001
    41	4.64401	0	0.0001
    42	4.64403	0	0.0001
    43	4.64403	0	0.0001
    44	4.64404	0	0.0001
    45	4.64404	0	0.0001
    46	4.64404	0	0.0001
    47	4.64404	0	0.0001
    48	4.64404	0	0.0001
    49	4.64404	0	0.0001
    50	4.64401	0	0.0001
    51	4.64403	0	0.0001
    52	4.64401	0	0.0001
    53	4.64401	0	0.0001
    54	4.64404	0	0.0001
    55	4.64403	0	0.0001
    56	4.64404	0	0.0001
    57	4.64401	0	0.0001
    58	4.64402	0	0.0001
    59	4.64401	0	0.0001
    60	4.64404	0	0.0001
    61	4.64401	0	0.0001
    62	4.64401	0	0.0001
    63	4.64401	0	0.0001
    64	4.64403	0	0.0001
    65	4.64403	0	0.0001
    66	4.64403	0	0.0001
    67	4.64403	0	0.0001
    68	4.64402	0	0.0001
    69	4.64401	0	0.0001
    70	4.64401	0	0.0001
    71	4.64402	0	0.0001
    72	4.64403	0	0.0001
    73	4.64403	0	0.0001
    74	4.64403	0	0.0001
    75	4.64403	0	0.0001
    76	4.64403	0	0.0001
    77	4.64403	0	0.0001
    78	4.64403	0	0.0001
    79	4.64403	0	0.0001
    80	4.64403	0	0.0001
    81	4.64403	0	0.0001
    82	4.64403	0	0.0001
    83	4.64403	0	0.0001
    84	4.64403	0	0.0001
    85	4.64401	0	0.0001
    86	4.64401	0	0.0001
    87	4.64401	0	0.0001
    88	4.64401	0	0.0001
    89	4.64401	0	0.0001
    90	4.64401	0	0.0001
    91	4.64401	0	0.0001
    92	4.64402	0	0.0001
    93	4.64401	0	0.0001
    94	4.64401	0	0.0001
    95	4.64401	0	0.0001
    96	4.64401	0	0.0001
    97	4.64401	0	0.0001
    98	4.64403	0	0.0001
    99	4.64403	0	0.0001
   100	4.64403	0	0.0001
   101	4.64401	0	0.0001

Measurement: tr1
  step	tr1	FROM	TO
     1	7.66013e-007	2.02475e-005	2.10135e-005
     2	7.71589e-007	2.02484e-005	2.102e-005
     3	7.7645e-007	2.02496e-005	2.10261e-005
     4	7.7774e-007	2.02545e-005	2.10322e-005
     5	7.88006e-007	2.02514e-005	2.10394e-005
     6	7.90613e-007	2.02552e-005	2.10458e-005
     7	7.95861e-007	2.02563e-005	2.10522e-005
     8	8.01314e-007	2.02573e-005	2.10586e-005
     9	8.07117e-007	2.02583e-005	2.10654e-005
    10	8.12398e-007	2.02592e-005	2.10716e-005
    11	8.17512e-007	2.026e-005	2.10776e-005
    12	8.22897e-007	2.02609e-005	2.10838e-005
    13	8.27374e-007	2.02624e-005	2.10898e-005
    14	8.31332e-007	2.02639e-005	2.10953e-005
    15	8.38018e-007	2.02655e-005	2.11035e-005
    16	8.44005e-007	2.02671e-005	2.11112e-005
    17	8.46811e-007	2.02721e-005	2.1119e-005
    18	8.51051e-007	2.02748e-005	2.11258e-005
    19	8.5472e-007	2.02774e-005	2.11321e-005
    20	8.5806e-007	2.02802e-005	2.11382e-005
    21	8.60981e-007	2.0283e-005	2.11439e-005
    22	8.64041e-007	2.02858e-005	2.11498e-005
    23	8.68226e-007	2.02884e-005	2.11567e-005
    24	8.74425e-007	2.02898e-005	2.11642e-005
    25	8.80395e-007	2.02912e-005	2.11715e-005
    26	8.87645e-007	2.0291e-005	2.11786e-005
    27	8.92617e-007	2.02928e-005	2.11854e-005
    28	8.97548e-007	2.02946e-005	2.11921e-005
    29	9.02439e-007	2.02964e-005	2.11988e-005
    30	9.07292e-007	2.02982e-005	2.12055e-005
    31	9.12108e-007	2.03e-005	2.12121e-005
    32	9.16947e-007	2.03018e-005	2.12187e-005
    33	9.21696e-007	2.03036e-005	2.12253e-005
    34	9.26412e-007	2.03054e-005	2.12318e-005
    35	9.31096e-007	2.03072e-005	2.12383e-005
    36	9.35731e-007	2.0309e-005	2.12447e-005
    37	9.40411e-007	2.03108e-005	2.12512e-005
    38	9.45016e-007	2.03125e-005	2.12575e-005
    39	9.52614e-007	2.03117e-005	2.12643e-005
    40	9.57225e-007	2.03134e-005	2.12707e-005
    41	9.61825e-007	2.03152e-005	2.1277e-005
    42	9.66409e-007	2.0317e-005	2.12834e-005
    43	9.70949e-007	2.03187e-005	2.12897e-005
    44	9.75465e-007	2.03205e-005	2.1296e-005
    45	9.79946e-007	2.03223e-005	2.13022e-005
    46	9.85087e-007	2.0324e-005	2.13091e-005
    47	9.90405e-007	2.03258e-005	2.13162e-005
    48	9.95678e-007	2.03276e-005	2.13232e-005
    49	1.00092e-006	2.03294e-005	2.13303e-005
    50	1.00608e-006	2.03312e-005	2.13373e-005
    51	1.01127e-006	2.03331e-005	2.13443e-005
    52	1.01631e-006	2.03349e-005	2.13512e-005
    53	1.02131e-006	2.03368e-005	2.13581e-005
    54	1.02851e-006	2.03356e-005	2.13641e-005
    55	1.03118e-006	2.03405e-005	2.13716e-005
    56	1.03748e-006	2.03407e-005	2.13782e-005
    57	1.04151e-006	2.0342e-005	2.13835e-005
    58	1.04518e-006	2.03453e-005	2.13904e-005
    59	1.05257e-006	2.03438e-005	2.13964e-005
    60	1.0574e-006	2.03473e-005	2.14047e-005
    61	1.05799e-006	2.03519e-005	2.14099e-005
    62	1.06644e-006	2.03504e-005	2.14168e-005
    63	1.06761e-006	2.03548e-005	2.14224e-005
    64	1.07209e-006	2.03575e-005	2.14296e-005
    65	1.07882e-006	2.03576e-005	2.14364e-005
    66	1.08811e-006	2.0356e-005	2.14441e-005
    67	1.09271e-006	2.03578e-005	2.14505e-005
    68	1.09804e-006	2.03596e-005	2.14576e-005
    69	1.10247e-006	2.03613e-005	2.14638e-005
    70	1.10668e-006	2.03632e-005	2.14699e-005
    71	1.11069e-006	2.03651e-005	2.14758e-005
    72	1.11551e-006	2.03672e-005	2.14827e-005
    73	1.1208e-006	2.03693e-005	2.14901e-005
    74	1.12579e-006	2.03715e-005	2.14973e-005
    75	1.13049e-006	2.03739e-005	2.15044e-005
    76	1.13491e-006	2.03763e-005	2.15112e-005
    77	1.1363e-006	2.03815e-005	2.15178e-005
    78	1.1424e-006	2.03821e-005	2.15245e-005
    79	1.14815e-006	2.0383e-005	2.15311e-005
    80	1.15336e-006	2.03843e-005	2.15377e-005
    81	1.15852e-006	2.03858e-005	2.15443e-005
    82	1.16361e-006	2.03872e-005	2.15508e-005
    83	1.16866e-006	2.03887e-005	2.15574e-005
    84	1.17368e-006	2.03902e-005	2.15639e-005
    85	1.17858e-006	2.03918e-005	2.15704e-005
    86	1.18348e-006	2.03934e-005	2.15769e-005
    87	1.18834e-006	2.0395e-005	2.15834e-005
    88	1.19315e-006	2.03967e-005	2.15898e-005
    89	1.19791e-006	2.03983e-005	2.15963e-005
    90	1.20295e-006	2.03999e-005	2.16029e-005
    91	1.20795e-006	2.04016e-005	2.16096e-005
    92	1.21239e-006	2.04052e-005	2.16176e-005
    93	1.21753e-006	2.04054e-005	2.16229e-005
    94	1.22247e-006	2.04083e-005	2.16308e-005
    95	1.22802e-006	2.04091e-005	2.16371e-005
    96	1.22979e-006	2.04148e-005	2.16446e-005
    97	1.23464e-006	2.0416e-005	2.16506e-005
    98	1.23951e-006	2.04172e-005	2.16567e-005
    99	1.24415e-006	2.04184e-005	2.16625e-005
   100	1.25007e-006	2.04196e-005	2.16696e-005
   101	1.25743e-006	2.04201e-005	2.16776e-005

Measurement: tr2
  step	tr2	FROM	TO
     1	1.80141e-007	6.0141e-005	6.03212e-005
     2	1.71213e-007	6.01412e-005	6.03124e-005
     3	1.75408e-007	6.01413e-005	6.03168e-005
     4	1.78232e-007	6.0141e-005	6.03193e-005
     5	1.84834e-007	6.01416e-005	6.03265e-005
     6	1.81967e-007	6.01418e-005	6.03238e-005
     7	1.77431e-007	6.01419e-005	6.03194e-005
     8	1.86477e-007	6.0141e-005	6.03275e-005
     9	1.76466e-007	6.01421e-005	6.03186e-005
    10	1.84414e-007	6.01469e-005	6.03313e-005
    11	1.85789e-007	6.01414e-005	6.03272e-005
    12	1.87854e-007	6.01425e-005	6.03304e-005
    13	1.88282e-007	6.01422e-005	6.03305e-005
    14	1.84389e-007	6.01426e-005	6.0327e-005
    15	1.87628e-007	6.0142e-005	6.03296e-005
    16	1.90998e-007	6.01421e-005	6.03331e-005
    17	1.92455e-007	6.01434e-005	6.03359e-005
    18	1.94022e-007	6.01436e-005	6.03376e-005
    19	1.9548e-007	6.01437e-005	6.03392e-005
    20	1.968e-007	6.01439e-005	6.03407e-005
    21	1.98712e-007	6.0144e-005	6.03427e-005
    22	1.99841e-007	6.01442e-005	6.0344e-005
    23	2.00189e-007	6.01443e-005	6.03445e-005
    24	2.01788e-007	6.01445e-005	6.03463e-005
    25	2.02689e-007	6.01446e-005	6.03473e-005
    26	2.0266e-007	6.0144e-005	6.03467e-005
    27	1.99586e-007	6.01444e-005	6.0344e-005
    28	2.05163e-007	6.01451e-005	6.03502e-005
    29	2.05901e-007	6.01452e-005	6.03511e-005
    30	2.05939e-007	6.01454e-005	6.03513e-005
    31	2.06561e-007	6.01455e-005	6.03521e-005
    32	2.07678e-007	6.01457e-005	6.03533e-005
    33	2.08166e-007	6.01458e-005	6.0354e-005
    34	2.08622e-007	6.0146e-005	6.03546e-005
    35	2.09046e-007	6.01461e-005	6.03552e-005
    36	2.09437e-007	6.01463e-005	6.03557e-005
    37	2.09794e-007	6.01464e-005	6.03562e-005
    38	2.10135e-007	6.01466e-005	6.03567e-005
    39	2.13654e-007	6.01448e-005	6.03584e-005
    40	2.16117e-007	6.01459e-005	6.0362e-005
    41	2.16942e-007	6.01451e-005	6.03621e-005
    42	2.13301e-007	6.01459e-005	6.03592e-005
    43	2.1296e-007	6.01504e-005	6.03633e-005
    44	2.1826e-007	6.01479e-005	6.03661e-005
    45	2.18934e-007	6.01466e-005	6.03655e-005
    46	2.21976e-007	6.01462e-005	6.03682e-005
    47	2.20831e-007	6.01467e-005	6.03675e-005
    48	2.2171e-007	6.01482e-005	6.03699e-005
    49	2.21866e-007	6.0149e-005	6.03708e-005
    50	2.21995e-007	6.01511e-005	6.03731e-005
    51	2.21831e-007	6.01467e-005	6.03685e-005
    52	2.27185e-007	6.01467e-005	6.03739e-005
    53	2.28055e-007	6.01465e-005	6.03745e-005
    54	2.20047e-007	6.01485e-005	6.03686e-005
    55	2.2905e-007	6.0148e-005	6.03771e-005
    56	2.26481e-007	6.0149e-005	6.03754e-005
    57	2.28603e-007	6.01494e-005	6.0378e-005
    58	2.29723e-007	6.01491e-005	6.03788e-005
    59	2.30155e-007	6.01482e-005	6.03784e-005
    60	2.31799e-007	6.01499e-005	6.03817e-005
    61	2.32547e-007	6.01488e-005	6.03813e-005
    62	2.33158e-007	6.0149e-005	6.03822e-005
    63	2.36008e-007	6.01477e-005	6.03837e-005
    64	2.38909e-007	6.0146e-005	6.03849e-005
    65	2.34072e-007	6.01506e-005	6.03847e-005
    66	2.30721e-007	6.01508e-005	6.03815e-005
    67	2.35843e-007	6.01509e-005	6.03868e-005
    68	2.40792e-007	6.01481e-005	6.03889e-005
    69	2.41291e-007	6.01495e-005	6.03908e-005
    70	2.43572e-007	6.01486e-005	6.03921e-005
    71	2.4441e-007	6.0149e-005	6.03934e-005
    72	2.40623e-007	6.01517e-005	6.03923e-005
    73	2.40174e-007	6.01519e-005	6.0392e-005
    74	2.41877e-007	6.0152e-005	6.03939e-005
    75	2.37765e-007	6.01522e-005	6.03899e-005
    76	2.42958e-007	6.01523e-005	6.03953e-005
    77	2.44373e-007	6.01525e-005	6.03968e-005
    78	2.41143e-007	6.01526e-005	6.03938e-005
    79	2.49988e-007	6.01487e-005	6.03987e-005
    80	2.50698e-007	6.01488e-005	6.03995e-005
    81	2.51404e-007	6.01489e-005	6.04003e-005
    82	2.53779e-007	6.01503e-005	6.04041e-005
    83	2.50132e-007	6.01554e-005	6.04055e-005
    84	2.5415e-007	6.01502e-005	6.04043e-005
    85	2.57185e-007	6.01505e-005	6.04077e-005
    86	2.48694e-007	6.0153e-005	6.04017e-005
    87	2.49928e-007	6.0152e-005	6.04019e-005
    88	2.51138e-007	6.01511e-005	6.04023e-005
    89	2.5089e-007	6.01525e-005	6.04033e-005
    90	2.55189e-007	6.01568e-005	6.0412e-005
    91	2.52184e-007	6.01524e-005	6.04046e-005
    92	2.58e-007	6.01502e-005	6.04082e-005
    93	2.53727e-007	6.0152e-005	6.04057e-005
    94	2.53777e-007	6.01529e-005	6.04067e-005
    95	2.55356e-007	6.01524e-005	6.04077e-005
    96	2.54245e-007	6.01543e-005	6.04086e-005
    97	2.64499e-007	6.01522e-005	6.04167e-005
    98	2.61202e-007	6.01509e-005	6.04121e-005
    99	2.61733e-007	6.01511e-005	6.04128e-005
   100	2.62262e-007	6.01512e-005	6.04134e-005
   101	2.62789e-007	6.01513e-005	6.04141e-005

Measurement: vth
  step	v(n004)	at
     1	8.84522	2.05954e-005
     2	8.84518	2.05995e-005
     3	8.84529	2.06036e-005
     4	8.84785	2.06049e-005
     5	8.84596	2.0611e-005
     6	8.84634	2.0615e-005
     7	8.84629	2.06191e-005
     8	8.84633	2.06232e-005
     9	8.8463	2.06273e-005
    10	8.84634	2.06313e-005
    11	8.8467	2.06353e-005
    12	8.84674	2.06393e-005
    13	8.84653	2.06436e-005
    14	8.8462	2.06481e-005
    15	8.84596	2.06524e-005
    16	8.84603	2.06564e-005
    17	8.84684	2.066e-005
    18	8.84773	2.06634e-005
    19	8.84884	2.06667e-005
    20	8.85013	2.067e-005
    21	8.84962	2.06748e-005
    22	8.84859	2.06796e-005
    23	8.84814	2.06842e-005
    24	8.8478	2.06887e-005
    25	8.84756	2.0693e-005
    26	8.84721	2.06973e-005
    27	8.84727	2.07014e-005
    28	8.84734	2.07055e-005
    29	8.8474	2.07096e-005
    30	8.84748	2.07137e-005
    31	8.84755	2.07178e-005
    32	8.84763	2.07218e-005
    33	8.84771	2.07259e-005
    34	8.84779	2.073e-005
    35	8.84787	2.0734e-005
    36	8.84796	2.07381e-005
    37	8.84804	2.07421e-005
    38	8.84835	2.07462e-005
    39	8.84847	2.07501e-005
    40	8.84853	2.07542e-005
    41	8.84859	2.07583e-005
    42	8.84865	2.07623e-005
    43	8.84872	2.07664e-005
    44	8.84879	2.07705e-005
    45	8.84887	2.07745e-005
    46	8.84894	2.07786e-005
    47	8.84902	2.07826e-005
    48	8.84911	2.07867e-005
    49	8.8492	2.07907e-005
    50	8.84931	2.07947e-005
    51	8.84942	2.07988e-005
    52	8.84955	2.08028e-005
    53	8.8497	2.08068e-005
    54	8.84946	2.08113e-005
    55	8.85003	2.08147e-005
    56	8.84986	2.0819e-005
    57	8.85128	2.0822e-005
    58	8.85188	2.08255e-005
    59	8.85029	2.08314e-005
    60	8.85034	2.08351e-005
    61	8.85199	2.08378e-005
    62	8.85054	2.08436e-005
    63	8.85141	2.08468e-005
    64	8.85211	2.08499e-005
    65	8.8518	2.08543e-005
    66	8.85063	2.08597e-005
    67	8.85076	2.08637e-005
    68	8.85043	2.08683e-005
    69	8.85066	2.08722e-005
    70	8.85097	2.08759e-005
    71	8.85134	2.08797e-005
    72	8.8518	2.08833e-005
    73	8.85234	2.08869e-005
    74	8.85227	2.08912e-005
    75	8.85193	2.08959e-005
    76	8.85163	2.09004e-005
    77	8.851	2.09053e-005
    78	8.85114	2.09093e-005
    79	8.85122	2.09133e-005
    80	8.85125	2.09175e-005
    81	8.85128	2.09216e-005
    82	8.85131	2.09257e-005
    83	8.85133	2.09298e-005
    84	8.85136	2.09339e-005
    85	8.85138	2.09381e-005
    86	8.85141	2.09422e-005
    87	8.85144	2.09463e-005
    88	8.85146	2.09504e-005
    89	8.85149	2.09545e-005
    90	8.85157	2.09586e-005
    91	8.85169	2.09626e-005
    92	8.85295	2.09649e-005
    93	8.85154	2.0971e-005
    94	8.85142	2.09752e-005
    95	8.85149	2.09793e-005
    96	8.85181	2.09828e-005
    97	8.85279	2.09857e-005
    98	8.8529	2.09898e-005
    99	8.85252	2.09945e-005
   100	8.85221	2.09991e-005
   101	8.85174	2.10039e-005


Date: Mon Mar 21 20:42:30 2022
Total elapsed time: 1.077 seconds.

tnom = 27
temp = 27
method = modified trap
totiter = 2219
traniter = 2196
tranpoints = 1074
accept = 1069
rejected = 5
matrix size = 11
fillins = 0
solver = Normal
Matrix Compiler1: 674 bytes object code size  0.1/0.1/[0.1]
Matrix Compiler2: off  [0.1]/0.1/0.1

