Circuit: * C:\Users\user\Documents\LTspiceXVII\file\Montecarlo\monte_SiC.asc

Direct Newton iteration for .op point succeeded.
.step tol1=0
.step tol1=0.01
.step tol1=0.02
.step tol1=0.03
.step tol1=0.04
.step tol1=0.05
.step tol1=0.06
.step tol1=0.07
.step tol1=0.08
.step tol1=0.09
.step tol1=0.1
.step tol1=0.11
.step tol1=0.12
.step tol1=0.13
.step tol1=0.14
.step tol1=0.15
.step tol1=0.16
.step tol1=0.17
.step tol1=0.18
.step tol1=0.19
.step tol1=0.2
.step tol1=0.21
.step tol1=0.22
.step tol1=0.23
.step tol1=0.24
.step tol1=0.25
.step tol1=0.26
.step tol1=0.27
.step tol1=0.28
.step tol1=0.29
.step tol1=0.3
.step tol1=0.31
.step tol1=0.32
.step tol1=0.33
.step tol1=0.34
.step tol1=0.35
.step tol1=0.36
.step tol1=0.37
.step tol1=0.38
.step tol1=0.39
.step tol1=0.4
.step tol1=0.41
.step tol1=0.42
.step tol1=0.43
.step tol1=0.44
.step tol1=0.45
.step tol1=0.46
.step tol1=0.47
.step tol1=0.48
.step tol1=0.49
.step tol1=0.5
.step tol1=0.51
.step tol1=0.52
.step tol1=0.53
.step tol1=0.54
.step tol1=0.55
.step tol1=0.56
.step tol1=0.57
.step tol1=0.58
.step tol1=0.59
.step tol1=0.6
.step tol1=0.61
.step tol1=0.62
.step tol1=0.63
.step tol1=0.64
.step tol1=0.65
.step tol1=0.66
.step tol1=0.67
.step tol1=0.68
.step tol1=0.69
.step tol1=0.7
.step tol1=0.71
.step tol1=0.72
.step tol1=0.73
.step tol1=0.74
.step tol1=0.75
.step tol1=0.76
.step tol1=0.77
.step tol1=0.78
.step tol1=0.79
.step tol1=0.8
.step tol1=0.81
.step tol1=0.82
.step tol1=0.83
.step tol1=0.84
.step tol1=0.85
.step tol1=0.86
.step tol1=0.87
.step tol1=0.88
.step tol1=0.89
.step tol1=0.9
.step tol1=0.91
.step tol1=0.92
.step tol1=0.93
.step tol1=0.94
.step tol1=0.95
.step tol1=0.96
.step tol1=0.97
.step tol1=0.98
.step tol1=0.99
.step tol1=1


Measurement: imax
  step	MAX(-i(v1))	FROM	TO
     1	4.64401	0	0.0001
     2	4.64411	0	0.0001
     3	4.64421	0	0.0001
     4	4.6443	0	0.0001
     5	4.6444	0	0.0001
     6	4.6445	0	0.0001
     7	4.6446	0	0.0001
     8	4.6447	0	0.0001
     9	4.6448	0	0.0001
    10	4.6449	0	0.0001
    11	4.645	0	0.0001
    12	4.6451	0	0.0001
    13	4.6452	0	0.0001
    14	4.6453	0	0.0001
    15	4.6454	0	0.0001
    16	4.6455	0	0.0001
    17	4.6456	0	0.0001
    18	4.6457	0	0.0001
    19	4.6458	0	0.0001
    20	4.6459	0	0.0001
    21	4.64599	0	0.0001
    22	4.64609	0	0.0001
    23	4.64619	0	0.0001
    24	4.64629	0	0.0001
    25	4.64639	0	0.0001
    26	4.64649	0	0.0001
    27	4.64659	0	0.0001
    28	4.64669	0	0.0001
    29	4.64679	0	0.0001
    30	4.64689	0	0.0001
    31	4.64699	0	0.0001
    32	4.64709	0	0.0001
    33	4.64719	0	0.0001
    34	4.64729	0	0.0001
    35	4.64739	0	0.0001
    36	4.64748	0	0.0001
    37	4.64758	0	0.0001
    38	4.64768	0	0.0001
    39	4.64778	0	0.0001
    40	4.64788	0	0.0001
    41	4.64798	0	0.0001
    42	4.64808	0	0.0001
    43	4.64818	0	0.0001
    44	4.64828	0	0.0001
    45	4.64838	0	0.0001
    46	4.64848	0	0.0001
    47	4.64858	0	0.0001
    48	4.64868	0	0.0001
    49	4.64878	0	0.0001
    50	4.64888	0	0.0001
    51	4.64897	0	0.0001
    52	4.64907	0	0.0001
    53	4.64917	0	0.0001
    54	4.64927	0	0.0001
    55	4.64937	0	0.0001
    56	4.64947	0	0.0001
    57	4.64957	0	0.0001
    58	4.64967	0	0.0001
    59	4.64977	0	0.0001
    60	4.64987	0	0.0001
    61	4.64997	0	0.0001
    62	4.65007	0	0.0001
    63	4.65017	0	0.0001
    64	4.65027	0	0.0001
    65	4.65036	0	0.0001
    66	4.65046	0	0.0001
    67	4.65056	0	0.0001
    68	4.65066	0	0.0001
    69	4.65076	0	0.0001
    70	4.65086	0	0.0001
    71	4.65096	0	0.0001
    72	4.65106	0	0.0001
    73	4.65116	0	0.0001
    74	4.65126	0	0.0001
    75	4.65136	0	0.0001
    76	4.65146	0	0.0001
    77	4.65156	0	0.0001
    78	4.65165	0	0.0001
    79	4.65175	0	0.0001
    80	4.65185	0	0.0001
    81	4.65195	0	0.0001
    82	4.65205	0	0.0001
    83	4.65215	0	0.0001
    84	4.65225	0	0.0001
    85	4.65235	0	0.0001
    86	4.65245	0	0.0001
    87	4.65255	0	0.0001
    88	4.65265	0	0.0001
    89	4.65275	0	0.0001
    90	4.65284	0	0.0001
    91	4.65294	0	0.0001
    92	4.65304	0	0.0001
    93	4.65314	0	0.0001
    94	4.65324	0	0.0001
    95	4.65334	0	0.0001
    96	4.65344	0	0.0001
    97	4.65354	0	0.0001
    98	4.65364	0	0.0001
    99	4.65374	0	0.0001
   100	4.65384	0	0.0001
   101	4.65394	0	0.0001

Measurement: tr1
  step	tr1	FROM	TO
     1	7.66013e-007	2.02475e-005	2.10135e-005
     2	7.66012e-007	2.02475e-005	2.10135e-005
     3	7.6601e-007	2.02475e-005	2.10135e-005
     4	7.66009e-007	2.02475e-005	2.10135e-005
     5	7.66009e-007	2.02475e-005	2.10135e-005
     6	7.66007e-007	2.02475e-005	2.10135e-005
     7	7.66006e-007	2.02475e-005	2.10135e-005
     8	7.66005e-007	2.02475e-005	2.10135e-005
     9	7.66004e-007	2.02475e-005	2.10135e-005
    10	7.66003e-007	2.02475e-005	2.10135e-005
    11	7.66002e-007	2.02475e-005	2.10135e-005
    12	7.66001e-007	2.02475e-005	2.10135e-005
    13	7.66e-007	2.02474e-005	2.10134e-005
    14	7.65999e-007	2.02474e-005	2.10134e-005
    15	7.65997e-007	2.02474e-005	2.10134e-005
    16	7.65997e-007	2.02474e-005	2.10134e-005
    17	7.65995e-007	2.02474e-005	2.10134e-005
    18	7.65994e-007	2.02474e-005	2.10134e-005
    19	7.65993e-007	2.02474e-005	2.10134e-005
    20	7.65992e-007	2.02474e-005	2.10134e-005
    21	7.65991e-007	2.02474e-005	2.10134e-005
    22	7.6599e-007	2.02474e-005	2.10134e-005
    23	7.65989e-007	2.02474e-005	2.10134e-005
    24	7.65987e-007	2.02474e-005	2.10134e-005
    25	7.65986e-007	2.02474e-005	2.10134e-005
    26	7.65985e-007	2.02474e-005	2.10134e-005
    27	7.65984e-007	2.02474e-005	2.10134e-005
    28	7.65983e-007	2.02474e-005	2.10134e-005
    29	7.65982e-007	2.02474e-005	2.10134e-005
    30	7.65981e-007	2.02474e-005	2.10134e-005
    31	7.6598e-007	2.02474e-005	2.10134e-005
    32	7.65979e-007	2.02474e-005	2.10134e-005
    33	7.65977e-007	2.02474e-005	2.10134e-005
    34	7.65976e-007	2.02474e-005	2.10134e-005
    35	7.65975e-007	2.02474e-005	2.10133e-005
    36	7.65974e-007	2.02474e-005	2.10133e-005
    37	7.65973e-007	2.02474e-005	2.10133e-005
    38	7.65972e-007	2.02474e-005	2.10133e-005
    39	7.65971e-007	2.02474e-005	2.10133e-005
    40	7.6597e-007	2.02474e-005	2.10133e-005
    41	7.65969e-007	2.02474e-005	2.10133e-005
    42	7.65968e-007	2.02473e-005	2.10133e-005
    43	7.65967e-007	2.02473e-005	2.10133e-005
    44	7.65965e-007	2.02473e-005	2.10133e-005
    45	7.65964e-007	2.02473e-005	2.10133e-005
    46	7.65963e-007	2.02473e-005	2.10133e-005
    47	7.65962e-007	2.02473e-005	2.10133e-005
    48	7.65961e-007	2.02473e-005	2.10133e-005
    49	7.6596e-007	2.02473e-005	2.10133e-005
    50	7.65959e-007	2.02473e-005	2.10133e-005
    51	7.65958e-007	2.02473e-005	2.10133e-005
    52	7.65957e-007	2.02473e-005	2.10133e-005
    53	7.65956e-007	2.02473e-005	2.10133e-005
    54	7.65955e-007	2.02473e-005	2.10133e-005
    55	7.65953e-007	2.02473e-005	2.10133e-005
    56	7.65952e-007	2.02473e-005	2.10132e-005
    57	7.65952e-007	2.02473e-005	2.10132e-005
    58	7.6595e-007	2.02473e-005	2.10132e-005
    59	7.65949e-007	2.02473e-005	2.10132e-005
    60	7.65948e-007	2.02473e-005	2.10132e-005
    61	7.65947e-007	2.02473e-005	2.10132e-005
    62	7.65946e-007	2.02473e-005	2.10132e-005
    63	7.65945e-007	2.02473e-005	2.10132e-005
    64	7.65944e-007	2.02473e-005	2.10132e-005
    65	7.65943e-007	2.02473e-005	2.10132e-005
    66	7.65941e-007	2.02473e-005	2.10132e-005
    67	7.6594e-007	2.02473e-005	2.10132e-005
    68	7.65939e-007	2.02473e-005	2.10132e-005
    69	7.65938e-007	2.02473e-005	2.10132e-005
    70	7.65937e-007	2.02472e-005	2.10132e-005
    71	7.65936e-007	2.02472e-005	2.10132e-005
    72	7.65935e-007	2.02472e-005	2.10132e-005
    73	7.65934e-007	2.02472e-005	2.10132e-005
    74	7.65933e-007	2.02472e-005	2.10132e-005
    75	7.65931e-007	2.02472e-005	2.10132e-005
    76	7.6593e-007	2.02472e-005	2.10132e-005
    77	7.65929e-007	2.02472e-005	2.10132e-005
    78	7.65928e-007	2.02472e-005	2.10131e-005
    79	7.65927e-007	2.02472e-005	2.10131e-005
    80	7.65926e-007	2.02472e-005	2.10131e-005
    81	7.65925e-007	2.02472e-005	2.10131e-005
    82	7.65924e-007	2.02472e-005	2.10131e-005
    83	7.65923e-007	2.02472e-005	2.10131e-005
    84	7.65922e-007	2.02472e-005	2.10131e-005
    85	7.65921e-007	2.02472e-005	2.10131e-005
    86	7.6592e-007	2.02472e-005	2.10131e-005
    87	7.65919e-007	2.02472e-005	2.10131e-005
    88	7.65917e-007	2.02472e-005	2.10131e-005
    89	7.65916e-007	2.02472e-005	2.10131e-005
    90	7.65915e-007	2.02472e-005	2.10131e-005
    91	7.65914e-007	2.02472e-005	2.10131e-005
    92	7.65913e-007	2.02472e-005	2.10131e-005
    93	7.65912e-007	2.02472e-005	2.10131e-005
    94	7.65911e-007	2.02472e-005	2.10131e-005
    95	7.6591e-007	2.02472e-005	2.10131e-005
    96	7.65909e-007	2.02472e-005	2.10131e-005
    97	7.65907e-007	2.02472e-005	2.10131e-005
    98	7.65907e-007	2.02471e-005	2.10131e-005
    99	7.65905e-007	2.02471e-005	2.1013e-005
   100	7.65904e-007	2.02471e-005	2.1013e-005
   101	7.65903e-007	2.02471e-005	2.1013e-005

Measurement: tr2
  step	tr2	FROM	TO
     1	1.80141e-007	6.0141e-005	6.03212e-005
     2	1.76113e-007	6.0141e-005	6.03172e-005
     3	1.76836e-007	6.01411e-005	6.03179e-005
     4	1.77499e-007	6.01411e-005	6.03186e-005
     5	1.78104e-007	6.01411e-005	6.03192e-005
     6	1.78656e-007	6.01411e-005	6.03197e-005
     7	1.79149e-007	6.01411e-005	6.03202e-005
     8	1.79637e-007	6.01411e-005	6.03207e-005
     9	1.80085e-007	6.01411e-005	6.03211e-005
    10	1.80493e-007	6.01411e-005	6.03216e-005
    11	1.7994e-007	6.01411e-005	6.0321e-005
    12	1.79855e-007	6.01411e-005	6.03209e-005
    13	1.7913e-007	6.01411e-005	6.03202e-005
    14	1.78363e-007	6.01411e-005	6.03194e-005
    15	1.77555e-007	6.01411e-005	6.03186e-005
    16	1.76709e-007	6.01411e-005	6.03178e-005
    17	1.75826e-007	6.01411e-005	6.03169e-005
    18	1.74909e-007	6.01411e-005	6.0316e-005
    19	1.73958e-007	6.01411e-005	6.0315e-005
    20	1.781e-007	6.01411e-005	6.03192e-005
    21	1.78723e-007	6.01411e-005	6.03198e-005
    22	1.79321e-007	6.01411e-005	6.03204e-005
    23	1.79893e-007	6.01411e-005	6.0321e-005
    24	1.79849e-007	6.01411e-005	6.03209e-005
    25	1.80358e-007	6.01411e-005	6.03214e-005
    26	1.80414e-007	6.01411e-005	6.03215e-005
    27	1.80095e-007	6.01411e-005	6.03212e-005
    28	1.79752e-007	6.01411e-005	6.03208e-005
    29	1.79386e-007	6.01411e-005	6.03205e-005
    30	1.78994e-007	6.01411e-005	6.03201e-005
    31	1.80191e-007	6.01411e-005	6.03213e-005
    32	1.78411e-007	6.01411e-005	6.03195e-005
    33	1.77e-007	6.01411e-005	6.03181e-005
    34	1.79008e-007	6.01411e-005	6.03201e-005
    35	1.79482e-007	6.01411e-005	6.03206e-005
    36	1.74792e-007	6.01411e-005	6.03159e-005
    37	1.74157e-007	6.01411e-005	6.03152e-005
    38	1.72449e-007	6.01411e-005	6.03135e-005
    39	1.70361e-007	6.01411e-005	6.03114e-005
    40	1.6817e-007	6.01411e-005	6.03093e-005
    41	1.72623e-007	6.01411e-005	6.03137e-005
    42	1.68858e-007	6.01411e-005	6.03099e-005
    43	1.71844e-007	6.01411e-005	6.03129e-005
    44	1.74615e-007	6.01411e-005	6.03157e-005
    45	1.77137e-007	6.01411e-005	6.03182e-005
    46	1.8057e-007	6.01411e-005	6.03217e-005
    47	1.7564e-007	6.01411e-005	6.03167e-005
    48	1.7024e-007	6.01411e-005	6.03113e-005
    49	1.78271e-007	6.01411e-005	6.03194e-005
    50	1.69431e-007	6.01411e-005	6.03105e-005
    51	1.69668e-007	6.01411e-005	6.03108e-005
    52	1.74939e-007	6.01411e-005	6.0316e-005
    53	1.70305e-007	6.01411e-005	6.03114e-005
    54	1.79076e-007	6.01411e-005	6.03202e-005
    55	1.80401e-007	6.01411e-005	6.03215e-005
    56	1.71925e-007	6.01411e-005	6.0313e-005
    57	1.71815e-007	6.01411e-005	6.03129e-005
    58	1.71705e-007	6.01411e-005	6.03128e-005
    59	1.71594e-007	6.01411e-005	6.03127e-005
    60	1.71483e-007	6.01411e-005	6.03126e-005
    61	1.71372e-007	6.01411e-005	6.03125e-005
    62	1.7126e-007	6.01411e-005	6.03124e-005
    63	1.71148e-007	6.01411e-005	6.03123e-005
    64	1.71036e-007	6.01411e-005	6.03121e-005
    65	1.70924e-007	6.01411e-005	6.0312e-005
    66	1.70811e-007	6.01411e-005	6.03119e-005
    67	1.70698e-007	6.01411e-005	6.03118e-005
    68	1.70584e-007	6.01411e-005	6.03117e-005
    69	1.7047e-007	6.01411e-005	6.03116e-005
    70	1.70356e-007	6.01411e-005	6.03115e-005
    71	1.70242e-007	6.01411e-005	6.03114e-005
    72	1.70127e-007	6.01411e-005	6.03112e-005
    73	1.70012e-007	6.01411e-005	6.03111e-005
    74	1.69897e-007	6.01411e-005	6.0311e-005
    75	1.69782e-007	6.01411e-005	6.03109e-005
    76	1.69666e-007	6.01411e-005	6.03108e-005
    77	1.6955e-007	6.01411e-005	6.03107e-005
    78	1.69433e-007	6.01411e-005	6.03106e-005
    79	1.69317e-007	6.01411e-005	6.03104e-005
    80	1.692e-007	6.01411e-005	6.03103e-005
    81	1.69083e-007	6.01411e-005	6.03102e-005
    82	1.68965e-007	6.01411e-005	6.03101e-005
    83	1.68848e-007	6.01411e-005	6.031e-005
    84	1.6873e-007	6.01411e-005	6.03099e-005
    85	1.68612e-007	6.01411e-005	6.03097e-005
    86	1.68493e-007	6.01411e-005	6.03096e-005
    87	1.68374e-007	6.01411e-005	6.03095e-005
    88	1.68255e-007	6.01411e-005	6.03094e-005
    89	1.68136e-007	6.01411e-005	6.03093e-005
    90	1.68339e-007	6.01411e-005	6.03095e-005
    91	1.68638e-007	6.01411e-005	6.03098e-005
    92	1.68931e-007	6.01411e-005	6.03101e-005
    93	1.69221e-007	6.01411e-005	6.03104e-005
    94	1.69506e-007	6.01411e-005	6.03106e-005
    95	1.69786e-007	6.01411e-005	6.03109e-005
    96	1.70062e-007	6.01411e-005	6.03112e-005
    97	1.70334e-007	6.01411e-005	6.03115e-005
    98	1.70601e-007	6.01411e-005	6.03117e-005
    99	1.70864e-007	6.01411e-005	6.0312e-005
   100	1.71123e-007	6.01411e-005	6.03123e-005
   101	1.71377e-007	6.01411e-005	6.03125e-005

Measurement: vth
  step	v(n004)	at
     1	8.84522	2.05954e-005
     2	8.84514	2.05954e-005
     3	8.84506	2.05954e-005
     4	8.84497	2.05954e-005
     5	8.84489	2.05953e-005
     6	8.84481	2.05953e-005
     7	8.84473	2.05953e-005
     8	8.84465	2.05953e-005
     9	8.84456	2.05953e-005
    10	8.84448	2.05952e-005
    11	8.8444	2.05952e-005
    12	8.84432	2.05952e-005
    13	8.84424	2.05952e-005
    14	8.84415	2.05952e-005
    15	8.84407	2.05952e-005
    16	8.84399	2.05951e-005
    17	8.84391	2.05951e-005
    18	8.84383	2.05951e-005
    19	8.84375	2.05951e-005
    20	8.84366	2.05951e-005
    21	8.84358	2.0595e-005
    22	8.8435	2.0595e-005
    23	8.84342	2.0595e-005
    24	8.84334	2.0595e-005
    25	8.84325	2.0595e-005
    26	8.84317	2.05949e-005
    27	8.84309	2.05949e-005
    28	8.84301	2.05949e-005
    29	8.84293	2.05949e-005
    30	8.84284	2.05949e-005
    31	8.84276	2.05948e-005
    32	8.84268	2.05948e-005
    33	8.8426	2.05948e-005
    34	8.84252	2.05948e-005
    35	8.84243	2.05948e-005
    36	8.84235	2.05947e-005
    37	8.84227	2.05947e-005
    38	8.84219	2.05947e-005
    39	8.84211	2.05947e-005
    40	8.84203	2.05947e-005
    41	8.84194	2.05946e-005
    42	8.84186	2.05946e-005
    43	8.84178	2.05946e-005
    44	8.8417	2.05946e-005
    45	8.84162	2.05946e-005
    46	8.84153	2.05946e-005
    47	8.84145	2.05945e-005
    48	8.84137	2.05945e-005
    49	8.84129	2.05945e-005
    50	8.84121	2.05945e-005
    51	8.84113	2.05945e-005
    52	8.84104	2.05944e-005
    53	8.84096	2.05944e-005
    54	8.84088	2.05944e-005
    55	8.8408	2.05944e-005
    56	8.84072	2.05944e-005
    57	8.84063	2.05943e-005
    58	8.84055	2.05943e-005
    59	8.84047	2.05943e-005
    60	8.84039	2.05943e-005
    61	8.84031	2.05943e-005
    62	8.84023	2.05942e-005
    63	8.84014	2.05942e-005
    64	8.84006	2.05942e-005
    65	8.83998	2.05942e-005
    66	8.8399	2.05942e-005
    67	8.83982	2.05941e-005
    68	8.83973	2.05941e-005
    69	8.83965	2.05941e-005
    70	8.83957	2.05941e-005
    71	8.83949	2.05941e-005
    72	8.83941	2.05941e-005
    73	8.83932	2.0594e-005
    74	8.83924	2.0594e-005
    75	8.83916	2.0594e-005
    76	8.83908	2.0594e-005
    77	8.839	2.0594e-005
    78	8.83891	2.05939e-005
    79	8.83883	2.05939e-005
    80	8.83875	2.05939e-005
    81	8.83867	2.05939e-005
    82	8.83859	2.05939e-005
    83	8.83851	2.05938e-005
    84	8.83842	2.05938e-005
    85	8.83834	2.05938e-005
    86	8.83826	2.05938e-005
    87	8.83818	2.05938e-005
    88	8.8381	2.05937e-005
    89	8.83802	2.05937e-005
    90	8.83793	2.05937e-005
    91	8.83785	2.05937e-005
    92	8.83777	2.05937e-005
    93	8.83769	2.05936e-005
    94	8.83761	2.05936e-005
    95	8.83752	2.05936e-005
    96	8.83744	2.05936e-005
    97	8.83736	2.05936e-005
    98	8.83728	2.05936e-005
    99	8.8372	2.05935e-005
   100	8.83711	2.05935e-005
   101	8.83703	2.05935e-005


Date: Mon Mar 21 20:42:35 2022
Total elapsed time: 1.098 seconds.

tnom = 27
temp = 27
method = modified trap
totiter = 2250
traniter = 2227
tranpoints = 1105
accept = 1085
rejected = 20
matrix size = 11
fillins = 0
solver = Normal
Matrix Compiler1: 674 bytes object code size  0.1/0.1/[0.1]
Matrix Compiler2: off  [0.1]/0.1/0.1

