Circuit: * C:\Users\user\Documents\LTspiceXVII\file\Montecarlo\monte_SiC.asc

Direct Newton iteration for .op point succeeded.
.step tol1=0
.step tol1=0.01
.step tol1=0.02
.step tol1=0.03
.step tol1=0.04
.step tol1=0.05
.step tol1=0.06
.step tol1=0.07
.step tol1=0.08
.step tol1=0.09
.step tol1=0.1
.step tol1=0.11
.step tol1=0.12
.step tol1=0.13
.step tol1=0.14
.step tol1=0.15
.step tol1=0.16
.step tol1=0.17
.step tol1=0.18
.step tol1=0.19
.step tol1=0.2
.step tol1=0.21
.step tol1=0.22
.step tol1=0.23
.step tol1=0.24
.step tol1=0.25
.step tol1=0.26
.step tol1=0.27
.step tol1=0.28
.step tol1=0.29
.step tol1=0.3
.step tol1=0.31
.step tol1=0.32
.step tol1=0.33
.step tol1=0.34
.step tol1=0.35
.step tol1=0.36
.step tol1=0.37
.step tol1=0.38
.step tol1=0.39
.step tol1=0.4
.step tol1=0.41
.step tol1=0.42
.step tol1=0.43
.step tol1=0.44
.step tol1=0.45
.step tol1=0.46
.step tol1=0.47
.step tol1=0.48
.step tol1=0.49
.step tol1=0.5
.step tol1=0.51
.step tol1=0.52
.step tol1=0.53
.step tol1=0.54
.step tol1=0.55
.step tol1=0.56
.step tol1=0.57
.step tol1=0.58
.step tol1=0.59
.step tol1=0.6
.step tol1=0.61
.step tol1=0.62
.step tol1=0.63
.step tol1=0.64
.step tol1=0.65
.step tol1=0.66
.step tol1=0.67
.step tol1=0.68
.step tol1=0.69
.step tol1=0.7
.step tol1=0.71
.step tol1=0.72
.step tol1=0.73
.step tol1=0.74
.step tol1=0.75
.step tol1=0.76
.step tol1=0.77
.step tol1=0.78
.step tol1=0.79
.step tol1=0.8
.step tol1=0.81
.step tol1=0.82
.step tol1=0.83
.step tol1=0.84
.step tol1=0.85
.step tol1=0.86
.step tol1=0.87
.step tol1=0.88
.step tol1=0.89
.step tol1=0.9
.step tol1=0.91
.step tol1=0.92
.step tol1=0.93
.step tol1=0.94
.step tol1=0.95
.step tol1=0.96
.step tol1=0.97
.step tol1=0.98
.step tol1=0.99
.step tol1=1


Measurement: imax
  step	MAX(-i(v1))	FROM	TO
     1	4.64401	0	0.0001
     2	4.64401	0	0.0001
     3	4.64401	0	0.0001
     4	4.64404	0	0.0001
     5	4.64401	0	0.0001
     6	4.64401	0	0.0001
     7	4.64401	0	0.0001
     8	4.64401	0	0.0001
     9	4.64401	0	0.0001
    10	4.64401	0	0.0001
    11	4.64401	0	0.0001
    12	4.64401	0	0.0001
    13	4.64401	0	0.0001
    14	4.64401	0	0.0001
    15	4.64401	0	0.0001
    16	4.64401	0	0.0001
    17	4.64401	0	0.0001
    18	4.64401	0	0.0001
    19	4.64401	0	0.0001
    20	4.64401	0	0.0001
    21	4.64401	0	0.0001
    22	4.64401	0	0.0001
    23	4.64401	0	0.0001
    24	4.64405	0	0.0001
    25	4.64401	0	0.0001
    26	4.64401	0	0.0001
    27	4.64401	0	0.0001
    28	4.64405	0	0.0001
    29	4.64401	0	0.0001
    30	4.64401	0	0.0001
    31	4.64403	0	0.0001
    32	4.64401	0	0.0001
    33	4.64405	0	0.0001
    34	4.64401	0	0.0001
    35	4.64401	0	0.0001
    36	4.64401	0	0.0001
    37	4.64401	0	0.0001
    38	4.64402	0	0.0001
    39	4.64401	0	0.0001
    40	4.64401	0	0.0001
    41	4.64401	0	0.0001
    42	4.64404	0	0.0001
    43	4.64401	0	0.0001
    44	4.64402	0	0.0001
    45	4.64403	0	0.0001
    46	4.64401	0	0.0001
    47	4.64401	0	0.0001
    48	4.64405	0	0.0001
    49	4.64405	0	0.0001
    50	4.64405	0	0.0001
    51	4.64405	0	0.0001
    52	4.64405	0	0.0001
    53	4.64405	0	0.0001
    54	4.64401	0	0.0001
    55	4.64401	0	0.0001
    56	4.64401	0	0.0001
    57	4.64401	0	0.0001
    58	4.64401	0	0.0001
    59	4.64401	0	0.0001
    60	4.64401	0	0.0001
    61	4.64401	0	0.0001
    62	4.64401	0	0.0001
    63	4.64401	0	0.0001
    64	4.64401	0	0.0001
    65	4.64405	0	0.0001
    66	4.64401	0	0.0001
    67	4.64401	0	0.0001
    68	4.64401	0	0.0001
    69	4.64404	0	0.0001
    70	4.64402	0	0.0001
    71	4.64405	0	0.0001
    72	4.64401	0	0.0001
    73	4.64401	0	0.0001
    74	4.64401	0	0.0001
    75	4.64404	0	0.0001
    76	4.64401	0	0.0001
    77	4.64404	0	0.0001
    78	4.64403	0	0.0001
    79	4.64403	0	0.0001
    80	4.64401	0	0.0001
    81	4.64401	0	0.0001
    82	4.64401	0	0.0001
    83	4.64401	0	0.0001
    84	4.64401	0	0.0001
    85	4.64401	0	0.0001
    86	4.64401	0	0.0001
    87	4.64401	0	0.0001
    88	4.64401	0	0.0001
    89	4.64401	0	0.0001
    90	4.64401	0	0.0001
    91	4.64401	0	0.0001
    92	4.64401	0	0.0001
    93	4.64401	0	0.0001
    94	4.64401	0	0.0001
    95	4.64401	0	0.0001
    96	4.64401	0	0.0001
    97	4.64405	0	0.0001
    98	4.64401	0	0.0001
    99	4.64401	0	0.0001
   100	4.64401	0	0.0001
   101	4.64401	0	0.0001

Measurement: tr1
  step	tr1	FROM	TO
     1	7.66013e-007	2.02475e-005	2.10135e-005
     2	7.66309e-007	2.02477e-005	2.1014e-005
     3	7.68965e-007	2.02449e-005	2.10138e-005
     4	7.64923e-007	2.02477e-005	2.10126e-005
     5	7.68012e-007	2.02474e-005	2.10154e-005
     6	7.68978e-007	2.02469e-005	2.10159e-005
     7	7.7014e-007	2.02463e-005	2.10164e-005
     8	7.71173e-007	2.02455e-005	2.10167e-005
     9	7.72474e-007	2.02446e-005	2.10171e-005
    10	7.73965e-007	2.02434e-005	2.10174e-005
    11	7.7272e-007	2.02449e-005	2.10177e-005
    12	7.6573e-007	2.02496e-005	2.10153e-005
    13	7.68932e-007	2.02478e-005	2.10168e-005
    14	7.71998e-007	2.02463e-005	2.10183e-005
    15	7.747e-007	2.02449e-005	2.10196e-005
    16	7.76369e-007	2.02439e-005	2.10203e-005
    17	7.75715e-007	2.02452e-005	2.10209e-005
    18	7.75422e-007	2.02462e-005	2.10216e-005
    19	7.75054e-007	2.0247e-005	2.1022e-005
    20	7.74934e-007	2.02477e-005	2.10226e-005
    21	7.74929e-007	2.02482e-005	2.10232e-005
    22	7.74401e-007	2.02487e-005	2.10231e-005
    23	7.75435e-007	2.02468e-005	2.10222e-005
    24	7.7487e-007	2.02474e-005	2.10223e-005
    25	7.73201e-007	2.02508e-005	2.1024e-005
    26	7.7621e-007	2.02489e-005	2.10251e-005
    27	7.72011e-007	2.02521e-005	2.10241e-005
    28	7.76203e-007	2.02477e-005	2.10239e-005
    29	7.73693e-007	2.02507e-005	2.10244e-005
    30	7.72991e-007	2.02531e-005	2.10261e-005
    31	7.75401e-007	2.02522e-005	2.10276e-005
    32	7.7393e-007	2.02532e-005	2.10271e-005
    33	7.77389e-007	2.02484e-005	2.10258e-005
    34	7.84566e-007	2.02443e-005	2.10289e-005
    35	7.81882e-007	2.02476e-005	2.10295e-005
    36	7.85368e-007	2.02444e-005	2.10298e-005
    37	7.7674e-007	2.02528e-005	2.10296e-005
    38	7.78702e-007	2.02522e-005	2.10309e-005
    39	7.77352e-007	2.02534e-005	2.10308e-005
    40	7.87117e-007	2.02446e-005	2.10317e-005
    41	7.82877e-007	2.02495e-005	2.10323e-005
    42	7.79079e-007	2.02534e-005	2.10325e-005
    43	7.80806e-007	2.02528e-005	2.10336e-005
    44	7.82967e-007	2.02509e-005	2.10339e-005
    45	7.83963e-007	2.02479e-005	2.10319e-005
    46	7.83897e-007	2.02482e-005	2.10321e-005
    47	7.83995e-007	2.02485e-005	2.10325e-005
    48	7.84499e-007	2.02488e-005	2.10333e-005
    49	7.84945e-007	2.02491e-005	2.1034e-005
    50	7.85366e-007	2.02494e-005	2.10348e-005
    51	7.85763e-007	2.02497e-005	2.10355e-005
    52	7.86138e-007	2.025e-005	2.10361e-005
    53	7.86492e-007	2.02503e-005	2.10368e-005
    54	7.86799e-007	2.02506e-005	2.10374e-005
    55	7.87119e-007	2.02509e-005	2.1038e-005
    56	7.87454e-007	2.02512e-005	2.10387e-005
    57	7.87807e-007	2.02516e-005	2.10394e-005
    58	7.88142e-007	2.02519e-005	2.104e-005
    59	7.88461e-007	2.02522e-005	2.10407e-005
    60	7.88764e-007	2.02525e-005	2.10413e-005
    61	7.89051e-007	2.02528e-005	2.10419e-005
    62	7.91626e-007	2.02483e-005	2.10399e-005
    63	7.90247e-007	2.0253e-005	2.10432e-005
    64	7.90659e-007	2.02526e-005	2.10433e-005
    65	7.92877e-007	2.02499e-005	2.10428e-005
    66	7.92486e-007	2.02521e-005	2.10446e-005
    67	7.94123e-007	2.02505e-005	2.10446e-005
    68	7.95633e-007	2.02475e-005	2.10431e-005
    69	7.92035e-007	2.02544e-005	2.10464e-005
    70	7.93745e-007	2.02528e-005	2.10466e-005
    71	7.93e-007	2.02544e-005	2.10474e-005
    72	7.97397e-007	2.02492e-005	2.10466e-005
    73	7.94514e-007	2.02536e-005	2.10481e-005
    74	8.01717e-007	2.02457e-005	2.10474e-005
    75	7.97969e-007	2.02499e-005	2.10478e-005
    76	7.95481e-007	2.02542e-005	2.10497e-005
    77	7.96011e-007	2.02543e-005	2.10504e-005
    78	7.97554e-007	2.02528e-005	2.10504e-005
    79	7.97e-007	2.02543e-005	2.10513e-005
    80	7.96946e-007	2.02549e-005	2.10518e-005
    81	7.97791e-007	2.02544e-005	2.10522e-005
    82	8.01694e-007	2.0249e-005	2.10507e-005
    83	8.00678e-007	2.02516e-005	2.10523e-005
    84	8.04933e-007	2.02472e-005	2.10521e-005
    85	8.0208e-007	2.02507e-005	2.10527e-005
    86	8.03031e-007	2.025e-005	2.1053e-005
    87	8.05334e-007	2.02482e-005	2.10535e-005
    88	8.05975e-007	2.0248e-005	2.1054e-005
    89	8.04736e-007	2.02496e-005	2.10543e-005
    90	8.02313e-007	2.02538e-005	2.10561e-005
    91	8.01498e-007	2.02555e-005	2.1057e-005
    92	8.03123e-007	2.0254e-005	2.10571e-005
    93	8.04338e-007	2.02537e-005	2.10581e-005
    94	8.09588e-007	2.0247e-005	2.10566e-005
    95	8.05299e-007	2.0253e-005	2.10583e-005
    96	8.05317e-007	2.02543e-005	2.10596e-005
    97	8.04692e-007	2.02554e-005	2.10601e-005
    98	8.07563e-007	2.02528e-005	2.10604e-005
    99	8.0637e-007	2.0254e-005	2.10604e-005
   100	8.05904e-007	2.02556e-005	2.10615e-005
   101	8.0934e-007	2.02504e-005	2.10598e-005

Measurement: tr2
  step	tr2	FROM	TO
     1	1.80141e-007	6.0141e-005	6.03212e-005
     2	1.71928e-007	6.01411e-005	6.0313e-005
     3	1.77021e-007	6.01409e-005	6.03179e-005
     4	1.70907e-007	6.01462e-005	6.03171e-005
     5	1.7902e-007	6.01411e-005	6.03201e-005
     6	1.77835e-007	6.01411e-005	6.0319e-005
     7	1.76582e-007	6.01411e-005	6.03177e-005
     8	1.75216e-007	6.01412e-005	6.03164e-005
     9	1.73783e-007	6.01412e-005	6.0315e-005
    10	1.72327e-007	6.01412e-005	6.03135e-005
    11	1.78695e-007	6.01404e-005	6.03191e-005
    12	1.75416e-007	6.01424e-005	6.03178e-005
    13	1.82674e-007	6.01403e-005	6.0323e-005
    14	1.70037e-007	6.01417e-005	6.03117e-005
    15	1.76988e-007	6.01407e-005	6.03177e-005
    16	1.69989e-007	6.01413e-005	6.03113e-005
    17	1.70679e-007	6.01413e-005	6.0312e-005
    18	1.71312e-007	6.01413e-005	6.03126e-005
    19	1.71966e-007	6.01413e-005	6.03133e-005
    20	1.72605e-007	6.01414e-005	6.0314e-005
    21	1.73248e-007	6.01414e-005	6.03146e-005
    22	1.73838e-007	6.01414e-005	6.03152e-005
    23	1.73415e-007	6.01414e-005	6.03148e-005
    24	1.73953e-007	6.01422e-005	6.03162e-005
    25	1.7097e-007	6.01417e-005	6.03127e-005
    26	1.79544e-007	6.01415e-005	6.0321e-005
    27	1.7668e-007	6.01425e-005	6.03192e-005
    28	1.70423e-007	6.01419e-005	6.03124e-005
    29	1.77058e-007	6.01425e-005	6.03196e-005
    30	1.75941e-007	6.01462e-005	6.03221e-005
    31	1.71679e-007	6.01418e-005	6.03134e-005
    32	1.77847e-007	6.01435e-005	6.03214e-005
    33	1.81297e-007	6.01407e-005	6.0322e-005
    34	1.81918e-007	6.01416e-005	6.03235e-005
    35	1.80805e-007	6.01416e-005	6.03224e-005
    36	1.74663e-007	6.01416e-005	6.03163e-005
    37	1.78807e-007	6.01427e-005	6.03215e-005
    38	1.79271e-007	6.0141e-005	6.03203e-005
    39	1.81352e-007	6.01408e-005	6.03221e-005
    40	1.8293e-007	6.01417e-005	6.03246e-005
    41	1.82904e-007	6.01417e-005	6.03246e-005
    42	1.7894e-007	6.01412e-005	6.03201e-005
    43	1.73495e-007	6.01417e-005	6.03152e-005
    44	1.83555e-007	6.01418e-005	6.03253e-005
    45	1.70976e-007	6.0143e-005	6.0314e-005
    46	1.80011e-007	6.0141e-005	6.03211e-005
    47	1.72225e-007	6.0143e-005	6.03152e-005
    48	1.79402e-007	6.01428e-005	6.03222e-005
    49	1.72131e-007	6.0142e-005	6.03141e-005
    50	1.78795e-007	6.01413e-005	6.03201e-005
    51	1.76967e-007	6.01415e-005	6.03185e-005
    52	1.72977e-007	6.0142e-005	6.03149e-005
    53	1.73602e-007	6.01414e-005	6.0315e-005
    54	1.7954e-007	6.01464e-005	6.0326e-005
    55	1.80291e-007	6.01418e-005	6.03221e-005
    56	1.72882e-007	6.01471e-005	6.032e-005
    57	1.79824e-007	6.01441e-005	6.03239e-005
    58	1.82905e-007	6.01434e-005	6.03263e-005
    59	1.81842e-007	6.01431e-005	6.03249e-005
    60	1.8054e-007	6.01429e-005	6.03234e-005
    61	1.79086e-007	6.01426e-005	6.03217e-005
    62	1.83108e-007	6.01419e-005	6.0325e-005
    63	1.80146e-007	6.01456e-005	6.03258e-005
    64	1.80824e-007	6.01429e-005	6.03237e-005
    65	1.77749e-007	6.01417e-005	6.03194e-005
    66	1.77107e-007	6.01462e-005	6.03234e-005
    67	1.76815e-007	6.01421e-005	6.0319e-005
    68	1.81739e-007	6.01416e-005	6.03233e-005
    69	1.75144e-007	6.01416e-005	6.03167e-005
    70	1.81456e-007	6.01413e-005	6.03228e-005
    71	1.73961e-007	6.01422e-005	6.03162e-005
    72	1.74085e-007	6.01422e-005	6.03163e-005
    73	1.78818e-007	6.01426e-005	6.03214e-005
    74	1.78515e-007	6.01423e-005	6.03208e-005
    75	1.75409e-007	6.01417e-005	6.03171e-005
    76	1.74164e-007	6.01422e-005	6.03164e-005
    77	1.7882e-007	6.01426e-005	6.03214e-005
    78	1.79657e-007	6.01427e-005	6.03223e-005
    79	1.80354e-007	6.01417e-005	6.0322e-005
    80	1.82747e-007	6.01464e-005	6.03291e-005
    81	1.75641e-007	6.01423e-005	6.0318e-005
    82	1.80492e-007	6.01421e-005	6.03226e-005
    83	1.81515e-007	6.01424e-005	6.03239e-005
    84	1.826e-007	6.01424e-005	6.0325e-005
    85	1.82573e-007	6.01424e-005	6.0325e-005
    86	1.83098e-007	6.01425e-005	6.03256e-005
    87	1.83721e-007	6.01425e-005	6.03262e-005
    88	1.84147e-007	6.01425e-005	6.03266e-005
    89	1.84387e-007	6.01425e-005	6.03269e-005
    90	1.73104e-007	6.01461e-005	6.03192e-005
    91	1.83377e-007	6.01443e-005	6.03276e-005
    92	1.82988e-007	6.01415e-005	6.03245e-005
    93	1.85768e-007	6.01436e-005	6.03293e-005
    94	1.86612e-007	6.01426e-005	6.03292e-005
    95	1.82878e-007	6.01416e-005	6.03245e-005
    96	1.84327e-007	6.01432e-005	6.03276e-005
    97	1.79108e-007	6.01426e-005	6.03217e-005
    98	1.7439e-007	6.01482e-005	6.03226e-005
    99	1.77246e-007	6.01425e-005	6.03197e-005
   100	1.86318e-007	6.01415e-005	6.03279e-005
   101	1.87058e-007	6.01427e-005	6.03298e-005

Measurement: vth
  step	v(n004)	at
     1	8.84522	2.05954e-005
     2	8.84538	2.05955e-005
     3	8.84381	2.05966e-005
     4	8.84348	2.05968e-005
     5	8.84534	2.05962e-005
     6	8.84513	2.05966e-005
     7	8.84501	2.05969e-005
     8	8.84496	2.05971e-005
     9	8.84499	2.05972e-005
    10	8.84542	2.05968e-005
    11	8.84402	2.05983e-005
    12	8.84387	2.05982e-005
    13	8.84363	2.05988e-005
    14	8.84365	2.05992e-005
    15	8.84418	2.05991e-005
    16	8.8455	2.05982e-005
    17	8.84502	2.0599e-005
    18	8.84502	2.05993e-005
    19	8.84511	2.05995e-005
    20	8.84527	2.05997e-005
    21	8.84548	2.05998e-005
    22	8.84651	2.0599e-005
    23	8.84377	2.06011e-005
    24	8.84377	2.06013e-005
    25	8.84761	2.05981e-005
    26	8.84633	2.06e-005
    27	8.8449	2.06007e-005
    28	8.84385	2.06021e-005
    29	8.8444	2.06016e-005
    30	8.84612	2.06005e-005
    31	8.84837	2.05992e-005
    32	8.84545	2.06015e-005
    33	8.84399	2.06031e-005
    34	8.84549	2.06022e-005
    35	8.84505	2.06032e-005
    36	8.84542	2.06028e-005
    37	8.84536	2.06027e-005
    38	8.84829	2.06009e-005
    39	8.84646	2.06023e-005
    40	8.84552	2.06036e-005
    41	8.84623	2.06036e-005
    42	8.84692	2.06027e-005
    43	8.84863	2.06017e-005
    44	8.84761	2.06029e-005
    45	8.84412	2.06059e-005
    46	8.84415	2.06061e-005
    47	8.84419	2.06062e-005
    48	8.84424	2.06064e-005
    49	8.8443	2.06065e-005
    50	8.84437	2.06067e-005
    51	8.84444	2.06068e-005
    52	8.84452	2.0607e-005
    53	8.8446	2.06071e-005
    54	8.84468	2.06073e-005
    55	8.84477	2.06074e-005
    56	8.84488	2.06075e-005
    57	8.84501	2.06076e-005
    58	8.84516	2.06077e-005
    59	8.84531	2.06078e-005
    60	8.84547	2.06079e-005
    61	8.84564	2.0608e-005
    62	8.84439	2.06095e-005
    63	8.84794	2.0607e-005
    64	8.84563	2.06086e-005
    65	8.84472	2.06097e-005
    66	8.84806	2.06075e-005
    67	8.84619	2.06095e-005
    68	8.84454	2.06108e-005
    69	8.84828	2.06078e-005
    70	8.8477	2.06088e-005
    71	8.84849	2.06082e-005
    72	8.84589	2.06108e-005
    73	8.84622	2.06102e-005
    74	8.84565	2.06112e-005
    75	8.84481	2.06119e-005
    76	8.84661	2.06106e-005
    77	8.84851	2.06097e-005
    78	8.8485	2.06097e-005
    79	8.84829	2.06104e-005
    80	8.84855	2.06102e-005
    81	8.8468	2.06116e-005
    82	8.84472	2.06137e-005
    83	8.8466	2.06128e-005
    84	8.84586	2.06133e-005
    85	8.84607	2.06137e-005
    86	8.84597	2.06139e-005
    87	8.84584	2.06141e-005
    88	8.84585	2.06142e-005
    89	8.84591	2.06146e-005
    90	8.84767	2.06134e-005
    91	8.84834	2.06128e-005
    92	8.84781	2.06137e-005
    93	8.84653	2.06145e-005
    94	8.84584	2.06155e-005
    95	8.84736	2.06148e-005
    96	8.84691	2.0615e-005
    97	8.84868	2.06141e-005
    98	8.84606	2.0616e-005
    99	8.84764	2.06155e-005
   100	8.84893	2.06145e-005
   101	8.846	2.06173e-005


Date: Mon Mar 21 20:42:25 2022
Total elapsed time: 1.078 seconds.

tnom = 27
temp = 27
method = modified trap
totiter = 2245
traniter = 2222
tranpoints = 1103
accept = 1088
rejected = 15
matrix size = 11
fillins = 0
solver = Normal
Matrix Compiler1:      38 opcodes  0.1/0.1/[0.1]
Matrix Compiler2: 847 bytes object code size  0.1/0.1/[0.1]

