Circuit: * C:\Users\user\Documents\LTspiceXVII\file\Montecarlo\monte_SiC.asc

Direct Newton iteration for .op point succeeded.
.step tol1=0
.step tol1=0.01
.step tol1=0.02
.step tol1=0.03
.step tol1=0.04
.step tol1=0.05
.step tol1=0.06
.step tol1=0.07
.step tol1=0.08
.step tol1=0.09
.step tol1=0.1
.step tol1=0.11
.step tol1=0.12
.step tol1=0.13
.step tol1=0.14
.step tol1=0.15
.step tol1=0.16
.step tol1=0.17
.step tol1=0.18
.step tol1=0.19
.step tol1=0.2
.step tol1=0.21
.step tol1=0.22
.step tol1=0.23
.step tol1=0.24
.step tol1=0.25
.step tol1=0.26
.step tol1=0.27
.step tol1=0.28
.step tol1=0.29
.step tol1=0.3
.step tol1=0.31
.step tol1=0.32
.step tol1=0.33
.step tol1=0.34
.step tol1=0.35
.step tol1=0.36
.step tol1=0.37
.step tol1=0.38
.step tol1=0.39
.step tol1=0.4
.step tol1=0.41
.step tol1=0.42
.step tol1=0.43
.step tol1=0.44
.step tol1=0.45
.step tol1=0.46
.step tol1=0.47
.step tol1=0.48
.step tol1=0.49
.step tol1=0.5
.step tol1=0.51
.step tol1=0.52
.step tol1=0.53
.step tol1=0.54
.step tol1=0.55
.step tol1=0.56
.step tol1=0.57
.step tol1=0.58
.step tol1=0.59
.step tol1=0.6
.step tol1=0.61
.step tol1=0.62
.step tol1=0.63
.step tol1=0.64
.step tol1=0.65
.step tol1=0.66
.step tol1=0.67
.step tol1=0.68
.step tol1=0.69
.step tol1=0.7
.step tol1=0.71
.step tol1=0.72
.step tol1=0.73
.step tol1=0.74
.step tol1=0.75
.step tol1=0.76
.step tol1=0.77
.step tol1=0.78
.step tol1=0.79
.step tol1=0.8
.step tol1=0.81
.step tol1=0.82
.step tol1=0.83
.step tol1=0.84
.step tol1=0.85
.step tol1=0.86
.step tol1=0.87
.step tol1=0.88
.step tol1=0.89
.step tol1=0.9
.step tol1=0.91
.step tol1=0.92
.step tol1=0.93
.step tol1=0.94
.step tol1=0.95
.step tol1=0.96
.step tol1=0.97
.step tol1=0.98
.step tol1=0.99
.step tol1=1


Measurement: imax
  step	MAX(-i(v1))	FROM	TO
     1	4.64401	0	0.0001
     2	4.64401	0	0.0001
     3	4.64401	0	0.0001
     4	4.64401	0	0.0001
     5	4.64401	0	0.0001
     6	4.64401	0	0.0001
     7	4.64401	0	0.0001
     8	4.64401	0	0.0001
     9	4.64401	0	0.0001
    10	4.64401	0	0.0001
    11	4.64401	0	0.0001
    12	4.64401	0	0.0001
    13	4.64401	0	0.0001
    14	4.64401	0	0.0001
    15	4.64401	0	0.0001
    16	4.64401	0	0.0001
    17	4.64401	0	0.0001
    18	4.64401	0	0.0001
    19	4.64401	0	0.0001
    20	4.64401	0	0.0001
    21	4.64401	0	0.0001
    22	4.64401	0	0.0001
    23	4.64401	0	0.0001
    24	4.64401	0	0.0001
    25	4.64401	0	0.0001
    26	4.64401	0	0.0001
    27	4.64401	0	0.0001
    28	4.64401	0	0.0001
    29	4.64401	0	0.0001
    30	4.64401	0	0.0001
    31	4.64401	0	0.0001
    32	4.64401	0	0.0001
    33	4.64401	0	0.0001
    34	4.64401	0	0.0001
    35	4.64401	0	0.0001
    36	4.64401	0	0.0001
    37	4.64401	0	0.0001
    38	4.64401	0	0.0001
    39	4.64401	0	0.0001
    40	4.64401	0	0.0001
    41	4.64401	0	0.0001
    42	4.64401	0	0.0001
    43	4.64401	0	0.0001
    44	4.64401	0	0.0001
    45	4.64401	0	0.0001
    46	4.64401	0	0.0001
    47	4.64401	0	0.0001
    48	4.64401	0	0.0001
    49	4.64401	0	0.0001
    50	4.64401	0	0.0001
    51	4.64401	0	0.0001
    52	4.64401	0	0.0001
    53	4.64401	0	0.0001
    54	4.64401	0	0.0001
    55	4.64401	0	0.0001
    56	4.64401	0	0.0001
    57	4.64401	0	0.0001
    58	4.64401	0	0.0001
    59	4.64401	0	0.0001
    60	4.64401	0	0.0001
    61	4.64401	0	0.0001
    62	4.64401	0	0.0001
    63	4.64401	0	0.0001
    64	4.64401	0	0.0001
    65	4.64401	0	0.0001
    66	4.64401	0	0.0001
    67	4.64401	0	0.0001
    68	4.64401	0	0.0001
    69	4.64401	0	0.0001
    70	4.64401	0	0.0001
    71	4.64401	0	0.0001
    72	4.64401	0	0.0001
    73	4.64401	0	0.0001
    74	4.64401	0	0.0001
    75	4.64401	0	0.0001
    76	4.64401	0	0.0001
    77	4.64401	0	0.0001
    78	4.64401	0	0.0001
    79	4.64401	0	0.0001
    80	4.64401	0	0.0001
    81	4.64401	0	0.0001
    82	4.64401	0	0.0001
    83	4.64401	0	0.0001
    84	4.64401	0	0.0001
    85	4.64401	0	0.0001
    86	4.64401	0	0.0001
    87	4.64401	0	0.0001
    88	4.64401	0	0.0001
    89	4.64401	0	0.0001
    90	4.64401	0	0.0001
    91	4.64401	0	0.0001
    92	4.64401	0	0.0001
    93	4.64401	0	0.0001
    94	4.64401	0	0.0001
    95	4.64401	0	0.0001
    96	4.64401	0	0.0001
    97	4.64401	0	0.0001
    98	4.64401	0	0.0001
    99	4.64401	0	0.0001
   100	4.64401	0	0.0001
   101	4.64401	0	0.0001

Measurement: tr1
  step	tr1	FROM	TO
     1	7.66013e-007	2.02475e-005	2.10135e-005
     2	7.66011e-007	2.02475e-005	2.10135e-005
     3	7.6601e-007	2.02475e-005	2.10135e-005
     4	7.66009e-007	2.02475e-005	2.10135e-005
     5	7.66008e-007	2.02475e-005	2.10135e-005
     6	7.66007e-007	2.02475e-005	2.10135e-005
     7	7.66006e-007	2.02475e-005	2.10135e-005
     8	7.66005e-007	2.02475e-005	2.10135e-005
     9	7.66004e-007	2.02475e-005	2.10135e-005
    10	7.66002e-007	2.02475e-005	2.10135e-005
    11	7.66001e-007	2.02475e-005	2.10135e-005
    12	7.66e-007	2.02475e-005	2.10135e-005
    13	7.65999e-007	2.02475e-005	2.10135e-005
    14	7.65998e-007	2.02475e-005	2.10135e-005
    15	7.65997e-007	2.02475e-005	2.10135e-005
    16	7.65997e-007	2.02475e-005	2.10135e-005
    17	7.65996e-007	2.02475e-005	2.10135e-005
    18	7.65995e-007	2.02475e-005	2.10135e-005
    19	7.65994e-007	2.02475e-005	2.10135e-005
    20	7.65993e-007	2.02475e-005	2.10135e-005
    21	7.65992e-007	2.02475e-005	2.10135e-005
    22	7.65992e-007	2.02475e-005	2.10135e-005
    23	7.65991e-007	2.02475e-005	2.10135e-005
    24	7.6599e-007	2.02475e-005	2.10135e-005
    25	7.65989e-007	2.02475e-005	2.10135e-005
    26	7.65989e-007	2.02475e-005	2.10135e-005
    27	7.65988e-007	2.02475e-005	2.10135e-005
    28	7.65987e-007	2.02475e-005	2.10135e-005
    29	7.65986e-007	2.02475e-005	2.10135e-005
    30	7.65986e-007	2.02475e-005	2.10135e-005
    31	7.65985e-007	2.02475e-005	2.10135e-005
    32	7.65985e-007	2.02475e-005	2.10135e-005
    33	7.65984e-007	2.02475e-005	2.10135e-005
    34	7.65983e-007	2.02475e-005	2.10135e-005
    35	7.65983e-007	2.02475e-005	2.10135e-005
    36	7.65982e-007	2.02475e-005	2.10135e-005
    37	7.65981e-007	2.02475e-005	2.10135e-005
    38	7.65981e-007	2.02475e-005	2.10135e-005
    39	7.6598e-007	2.02475e-005	2.10135e-005
    40	7.6598e-007	2.02475e-005	2.10135e-005
    41	7.65979e-007	2.02475e-005	2.10135e-005
    42	7.65979e-007	2.02475e-005	2.10135e-005
    43	7.65978e-007	2.02475e-005	2.10134e-005
    44	7.65978e-007	2.02475e-005	2.10134e-005
    45	7.65977e-007	2.02475e-005	2.10134e-005
    46	7.65977e-007	2.02475e-005	2.10134e-005
    47	7.65976e-007	2.02475e-005	2.10134e-005
    48	7.65976e-007	2.02475e-005	2.10134e-005
    49	7.65976e-007	2.02475e-005	2.10134e-005
    50	7.65975e-007	2.02475e-005	2.10134e-005
    51	7.65975e-007	2.02475e-005	2.10134e-005
    52	7.65974e-007	2.02475e-005	2.10134e-005
    53	7.65974e-007	2.02475e-005	2.10134e-005
    54	7.65974e-007	2.02475e-005	2.10134e-005
    55	7.65973e-007	2.02475e-005	2.10134e-005
    56	7.65973e-007	2.02475e-005	2.10134e-005
    57	7.65972e-007	2.02475e-005	2.10134e-005
    58	7.65972e-007	2.02475e-005	2.10134e-005
    59	7.65972e-007	2.02475e-005	2.10134e-005
    60	7.65971e-007	2.02475e-005	2.10134e-005
    61	7.65971e-007	2.02475e-005	2.10134e-005
    62	7.65971e-007	2.02475e-005	2.10134e-005
    63	7.6597e-007	2.02475e-005	2.10134e-005
    64	7.6597e-007	2.02475e-005	2.10134e-005
    65	7.6597e-007	2.02475e-005	2.10134e-005
    66	7.65969e-007	2.02475e-005	2.10134e-005
    67	7.65969e-007	2.02475e-005	2.10134e-005
    68	7.65969e-007	2.02475e-005	2.10134e-005
    69	7.65969e-007	2.02475e-005	2.10134e-005
    70	7.65969e-007	2.02475e-005	2.10134e-005
    71	7.65968e-007	2.02475e-005	2.10134e-005
    72	7.65968e-007	2.02475e-005	2.10134e-005
    73	7.65968e-007	2.02475e-005	2.10134e-005
    74	7.65968e-007	2.02475e-005	2.10134e-005
    75	7.65967e-007	2.02475e-005	2.10134e-005
    76	7.65967e-007	2.02475e-005	2.10134e-005
    77	7.65967e-007	2.02475e-005	2.10134e-005
    78	7.65966e-007	2.02475e-005	2.10134e-005
    79	7.65966e-007	2.02475e-005	2.10134e-005
    80	7.65966e-007	2.02475e-005	2.10134e-005
    81	7.65966e-007	2.02475e-005	2.10134e-005
    82	7.65966e-007	2.02475e-005	2.10134e-005
    83	7.65965e-007	2.02475e-005	2.10134e-005
    84	7.65965e-007	2.02475e-005	2.10134e-005
    85	7.65965e-007	2.02475e-005	2.10134e-005
    86	7.65965e-007	2.02475e-005	2.10134e-005
    87	7.65965e-007	2.02475e-005	2.10134e-005
    88	7.65965e-007	2.02475e-005	2.10134e-005
    89	7.65964e-007	2.02475e-005	2.10134e-005
    90	7.65965e-007	2.02475e-005	2.10134e-005
    91	7.65964e-007	2.02475e-005	2.10134e-005
    92	7.65964e-007	2.02475e-005	2.10134e-005
    93	7.65964e-007	2.02475e-005	2.10134e-005
    94	7.65964e-007	2.02475e-005	2.10134e-005
    95	7.65964e-007	2.02475e-005	2.10134e-005
    96	7.65963e-007	2.02475e-005	2.10134e-005
    97	7.65963e-007	2.02475e-005	2.10134e-005
    98	7.65963e-007	2.02475e-005	2.10134e-005
    99	7.65963e-007	2.02475e-005	2.10134e-005
   100	7.65963e-007	2.02475e-005	2.10134e-005
   101	7.65963e-007	2.02475e-005	2.10134e-005

Measurement: tr2
  step	tr2	FROM	TO
     1	1.80141e-007	6.0141e-005	6.03212e-005
     2	1.74069e-007	6.0141e-005	6.03151e-005
     3	1.78957e-007	6.0141e-005	6.032e-005
     4	1.78147e-007	6.0141e-005	6.03192e-005
     5	1.77082e-007	6.0141e-005	6.03181e-005
     6	1.80112e-007	6.0141e-005	6.03212e-005
     7	1.71789e-007	6.0141e-005	6.03128e-005
     8	1.74914e-007	6.0141e-005	6.0316e-005
     9	1.7725e-007	6.0141e-005	6.03183e-005
    10	1.78952e-007	6.0141e-005	6.032e-005
    11	1.80306e-007	6.0141e-005	6.03213e-005
    12	1.78926e-007	6.0141e-005	6.032e-005
    13	1.77495e-007	6.0141e-005	6.03185e-005
    14	1.75264e-007	6.0141e-005	6.03163e-005
    15	1.79184e-007	6.0141e-005	6.03202e-005
    16	1.80124e-007	6.0141e-005	6.03211e-005
    17	1.80105e-007	6.0141e-005	6.03211e-005
    18	1.7948e-007	6.0141e-005	6.03205e-005
    19	1.78815e-007	6.0141e-005	6.03198e-005
    20	1.80251e-007	6.0141e-005	6.03213e-005
    21	1.71813e-007	6.0141e-005	6.03128e-005
    22	1.79314e-007	6.0141e-005	6.03203e-005
    23	1.75275e-007	6.0141e-005	6.03163e-005
    24	1.70882e-007	6.0141e-005	6.03119e-005
    25	1.69047e-007	6.0141e-005	6.03101e-005
    26	1.6898e-007	6.0141e-005	6.031e-005
    27	1.71604e-007	6.0141e-005	6.03126e-005
    28	1.75374e-007	6.0141e-005	6.03164e-005
    29	1.79896e-007	6.0141e-005	6.03209e-005
    30	1.68697e-007	6.0141e-005	6.03097e-005
    31	1.7956e-007	6.0141e-005	6.03206e-005
    32	1.69416e-007	6.0141e-005	6.03104e-005
    33	1.75947e-007	6.0141e-005	6.0317e-005
    34	1.76561e-007	6.0141e-005	6.03176e-005
    35	1.78428e-007	6.0141e-005	6.03194e-005
    36	1.69945e-007	6.0141e-005	6.03109e-005
    37	1.69723e-007	6.0141e-005	6.03107e-005
    38	1.69522e-007	6.0141e-005	6.03105e-005
    39	1.69329e-007	6.0141e-005	6.03103e-005
    40	1.69146e-007	6.0141e-005	6.03101e-005
    41	1.68971e-007	6.0141e-005	6.031e-005
    42	1.68804e-007	6.0141e-005	6.03098e-005
    43	1.68646e-007	6.0141e-005	6.03096e-005
    44	1.68495e-007	6.0141e-005	6.03095e-005
    45	1.68352e-007	6.0141e-005	6.03093e-005
    46	1.68216e-007	6.0141e-005	6.03092e-005
    47	1.68087e-007	6.0141e-005	6.03091e-005
    48	1.67965e-007	6.0141e-005	6.0309e-005
    49	1.6785e-007	6.0141e-005	6.03088e-005
    50	1.67741e-007	6.0141e-005	6.03087e-005
    51	1.67967e-007	6.0141e-005	6.0309e-005
    52	1.68206e-007	6.0141e-005	6.03092e-005
    53	1.68428e-007	6.0141e-005	6.03094e-005
    54	1.68634e-007	6.0141e-005	6.03096e-005
    55	1.68825e-007	6.0141e-005	6.03098e-005
    56	1.69003e-007	6.0141e-005	6.031e-005
    57	1.69167e-007	6.0141e-005	6.03102e-005
    58	1.69319e-007	6.0141e-005	6.03103e-005
    59	1.6946e-007	6.0141e-005	6.03104e-005
    60	1.69589e-007	6.0141e-005	6.03106e-005
    61	1.69709e-007	6.0141e-005	6.03107e-005
    62	1.69819e-007	6.0141e-005	6.03108e-005
    63	1.69921e-007	6.0141e-005	6.03109e-005
    64	1.70014e-007	6.0141e-005	6.0311e-005
    65	1.70099e-007	6.0141e-005	6.03111e-005
    66	1.70177e-007	6.0141e-005	6.03112e-005
    67	1.70248e-007	6.0141e-005	6.03112e-005
    68	1.70312e-007	6.0141e-005	6.03113e-005
    69	1.7037e-007	6.0141e-005	6.03114e-005
    70	1.70423e-007	6.0141e-005	6.03114e-005
    71	1.7047e-007	6.0141e-005	6.03115e-005
    72	1.70512e-007	6.0141e-005	6.03115e-005
    73	1.70549e-007	6.0141e-005	6.03115e-005
    74	1.70582e-007	6.0141e-005	6.03116e-005
    75	1.7061e-007	6.0141e-005	6.03116e-005
    76	1.70635e-007	6.0141e-005	6.03116e-005
    77	1.70655e-007	6.0141e-005	6.03116e-005
    78	1.70673e-007	6.0141e-005	6.03117e-005
    79	1.70687e-007	6.0141e-005	6.03117e-005
    80	1.70697e-007	6.0141e-005	6.03117e-005
    81	1.70705e-007	6.0141e-005	6.03117e-005
    82	1.70711e-007	6.0141e-005	6.03117e-005
    83	1.70714e-007	6.0141e-005	6.03117e-005
    84	1.70714e-007	6.0141e-005	6.03117e-005
    85	1.70712e-007	6.0141e-005	6.03117e-005
    86	1.70708e-007	6.0141e-005	6.03117e-005
    87	1.70702e-007	6.0141e-005	6.03117e-005
    88	1.70695e-007	6.0141e-005	6.03117e-005
    89	1.70686e-007	6.0141e-005	6.03117e-005
    90	1.70675e-007	6.0141e-005	6.03117e-005
    91	1.70662e-007	6.0141e-005	6.03116e-005
    92	1.70649e-007	6.0141e-005	6.03116e-005
    93	1.70634e-007	6.0141e-005	6.03116e-005
    94	1.70618e-007	6.0141e-005	6.03116e-005
    95	1.70601e-007	6.0141e-005	6.03116e-005
    96	1.70583e-007	6.0141e-005	6.03116e-005
    97	1.70564e-007	6.0141e-005	6.03115e-005
    98	1.70544e-007	6.0141e-005	6.03115e-005
    99	1.70524e-007	6.0141e-005	6.03115e-005
   100	1.70503e-007	6.0141e-005	6.03115e-005
   101	1.70481e-007	6.0141e-005	6.03115e-005

Measurement: vth
  step	v(n004)	at
     1	8.84522	2.05954e-005
     2	8.84521	2.05954e-005
     3	8.8452	2.05954e-005
     4	8.8452	2.05954e-005
     5	8.84519	2.05954e-005
     6	8.84518	2.05954e-005
     7	8.84518	2.05954e-005
     8	8.84517	2.05954e-005
     9	8.84516	2.05954e-005
    10	8.84516	2.05954e-005
    11	8.84515	2.05954e-005
    12	8.84515	2.05954e-005
    13	8.84514	2.05954e-005
    14	8.84513	2.05954e-005
    15	8.84513	2.05954e-005
    16	8.84512	2.05954e-005
    17	8.84512	2.05954e-005
    18	8.84511	2.05954e-005
    19	8.84511	2.05954e-005
    20	8.8451	2.05954e-005
    21	8.8451	2.05954e-005
    22	8.84509	2.05954e-005
    23	8.84509	2.05954e-005
    24	8.84508	2.05954e-005
    25	8.84508	2.05954e-005
    26	8.84508	2.05954e-005
    27	8.84507	2.05954e-005
    28	8.84507	2.05954e-005
    29	8.84506	2.05954e-005
    30	8.84506	2.05954e-005
    31	8.84506	2.05954e-005
    32	8.84505	2.05954e-005
    33	8.84505	2.05954e-005
    34	8.84504	2.05954e-005
    35	8.84504	2.05954e-005
    36	8.84504	2.05954e-005
    37	8.84503	2.05954e-005
    38	8.84503	2.05954e-005
    39	8.84503	2.05954e-005
    40	8.84502	2.05954e-005
    41	8.84502	2.05954e-005
    42	8.84502	2.05954e-005
    43	8.84502	2.05954e-005
    44	8.84501	2.05954e-005
    45	8.84501	2.05954e-005
    46	8.84501	2.05954e-005
    47	8.84501	2.05954e-005
    48	8.845	2.05954e-005
    49	8.845	2.05954e-005
    50	8.845	2.05954e-005
    51	8.845	2.05954e-005
    52	8.84499	2.05953e-005
    53	8.84499	2.05953e-005
    54	8.84499	2.05953e-005
    55	8.84499	2.05953e-005
    56	8.84498	2.05953e-005
    57	8.84498	2.05953e-005
    58	8.84498	2.05953e-005
    59	8.84498	2.05953e-005
    60	8.84498	2.05953e-005
    61	8.84497	2.05953e-005
    62	8.84497	2.05953e-005
    63	8.84497	2.05953e-005
    64	8.84497	2.05953e-005
    65	8.84497	2.05953e-005
    66	8.84497	2.05953e-005
    67	8.84497	2.05953e-005
    68	8.84496	2.05953e-005
    69	8.84496	2.05953e-005
    70	8.84496	2.05953e-005
    71	8.84496	2.05953e-005
    72	8.84496	2.05953e-005
    73	8.84496	2.05953e-005
    74	8.84495	2.05953e-005
    75	8.84495	2.05953e-005
    76	8.84495	2.05953e-005
    77	8.84495	2.05953e-005
    78	8.84495	2.05953e-005
    79	8.84495	2.05953e-005
    80	8.84495	2.05953e-005
    81	8.84495	2.05953e-005
    82	8.84494	2.05953e-005
    83	8.84494	2.05953e-005
    84	8.84494	2.05953e-005
    85	8.84494	2.05953e-005
    86	8.84494	2.05953e-005
    87	8.84494	2.05953e-005
    88	8.84494	2.05953e-005
    89	8.84494	2.05953e-005
    90	8.84494	2.05953e-005
    91	8.84494	2.05953e-005
    92	8.84493	2.05953e-005
    93	8.84493	2.05953e-005
    94	8.84493	2.05953e-005
    95	8.84493	2.05953e-005
    96	8.84493	2.05953e-005
    97	8.84493	2.05953e-005
    98	8.84493	2.05953e-005
    99	8.84493	2.05953e-005
   100	8.84493	2.05953e-005
   101	8.84493	2.05953e-005


Date: Mon Mar 21 20:41:56 2022
Total elapsed time: 1.096 seconds.

tnom = 27
temp = 27
method = modified trap
totiter = 2362
traniter = 2339
tranpoints = 1110
accept = 1089
rejected = 21
matrix size = 11
fillins = 0
solver = Normal
Matrix Compiler1: 674 bytes object code size  0.1/0.1/[0.1]
Matrix Compiler2: off  [0.1]/0.1/0.1

