Circuit: * C:\Users\user\Documents\LTspiceXVII\file\Montecarlo\monte_SiC.asc

Direct Newton iteration for .op point succeeded.
.step tol1=0
.step tol1=0.01
.step tol1=0.02
.step tol1=0.03
.step tol1=0.04
.step tol1=0.05
.step tol1=0.06
.step tol1=0.07
.step tol1=0.08
.step tol1=0.09
.step tol1=0.1
.step tol1=0.11
.step tol1=0.12
.step tol1=0.13
.step tol1=0.14
.step tol1=0.15
.step tol1=0.16
.step tol1=0.17
.step tol1=0.18
.step tol1=0.19
.step tol1=0.2
.step tol1=0.21
.step tol1=0.22
.step tol1=0.23
.step tol1=0.24
.step tol1=0.25
.step tol1=0.26
.step tol1=0.27
.step tol1=0.28
.step tol1=0.29
.step tol1=0.3
.step tol1=0.31
.step tol1=0.32
.step tol1=0.33
.step tol1=0.34
.step tol1=0.35
.step tol1=0.36
.step tol1=0.37
.step tol1=0.38
.step tol1=0.39
.step tol1=0.4
.step tol1=0.41
.step tol1=0.42
.step tol1=0.43
.step tol1=0.44
.step tol1=0.45
.step tol1=0.46
.step tol1=0.47
.step tol1=0.48
.step tol1=0.49
.step tol1=0.5
.step tol1=0.51
.step tol1=0.52
.step tol1=0.53
.step tol1=0.54
.step tol1=0.55
.step tol1=0.56
.step tol1=0.57
.step tol1=0.58
.step tol1=0.59
.step tol1=0.6
.step tol1=0.61
.step tol1=0.62
.step tol1=0.63
.step tol1=0.64
.step tol1=0.65
.step tol1=0.66
.step tol1=0.67
.step tol1=0.68
.step tol1=0.69
.step tol1=0.7
.step tol1=0.71
.step tol1=0.72
.step tol1=0.73
.step tol1=0.74
.step tol1=0.75
.step tol1=0.76
.step tol1=0.77
.step tol1=0.78
.step tol1=0.79
.step tol1=0.8
.step tol1=0.81
.step tol1=0.82
.step tol1=0.83
.step tol1=0.84
.step tol1=0.85
.step tol1=0.86
.step tol1=0.87
.step tol1=0.88
.step tol1=0.89
.step tol1=0.9
.step tol1=0.91
.step tol1=0.92
.step tol1=0.93
.step tol1=0.94
.step tol1=0.95
.step tol1=0.96
.step tol1=0.97
.step tol1=0.98
.step tol1=0.99
.step tol1=1


Measurement: imax
  step	MAX(-i(v1))	FROM	TO
     1	4.64401	0	0.0001
     2	4.64401	0	0.0001
     3	4.64401	0	0.0001
     4	4.64401	0	0.0001
     5	4.64401	0	0.0001
     6	4.64401	0	0.0001
     7	4.64401	0	0.0001
     8	4.64401	0	0.0001
     9	4.64401	0	0.0001
    10	4.64401	0	0.0001
    11	4.64401	0	0.0001
    12	4.64401	0	0.0001
    13	4.64401	0	0.0001
    14	4.64401	0	0.0001
    15	4.64401	0	0.0001
    16	4.64401	0	0.0001
    17	4.64401	0	0.0001
    18	4.64401	0	0.0001
    19	4.64401	0	0.0001
    20	4.64401	0	0.0001
    21	4.64401	0	0.0001
    22	4.64401	0	0.0001
    23	4.64401	0	0.0001
    24	4.64401	0	0.0001
    25	4.64401	0	0.0001
    26	4.64401	0	0.0001
    27	4.64401	0	0.0001
    28	4.64401	0	0.0001
    29	4.64401	0	0.0001
    30	4.64401	0	0.0001
    31	4.64401	0	0.0001
    32	4.64401	0	0.0001
    33	4.64401	0	0.0001
    34	4.64401	0	0.0001
    35	4.64401	0	0.0001
    36	4.64401	0	0.0001
    37	4.64401	0	0.0001
    38	4.64401	0	0.0001
    39	4.64401	0	0.0001
    40	4.64401	0	0.0001
    41	4.64401	0	0.0001
    42	4.64401	0	0.0001
    43	4.64401	0	0.0001
    44	4.64401	0	0.0001
    45	4.64401	0	0.0001
    46	4.64401	0	0.0001
    47	4.64401	0	0.0001
    48	4.64401	0	0.0001
    49	4.64401	0	0.0001
    50	4.64401	0	0.0001
    51	4.64401	0	0.0001
    52	4.64401	0	0.0001
    53	4.64401	0	0.0001
    54	4.64401	0	0.0001
    55	4.64401	0	0.0001
    56	4.64401	0	0.0001
    57	4.64401	0	0.0001
    58	4.64401	0	0.0001
    59	4.64401	0	0.0001
    60	4.64401	0	0.0001
    61	4.64401	0	0.0001
    62	4.64401	0	0.0001
    63	4.64401	0	0.0001
    64	4.64401	0	0.0001
    65	4.64401	0	0.0001
    66	4.64401	0	0.0001
    67	4.64401	0	0.0001
    68	4.64401	0	0.0001
    69	4.64401	0	0.0001
    70	4.64401	0	0.0001
    71	4.64401	0	0.0001
    72	4.64401	0	0.0001
    73	4.64401	0	0.0001
    74	4.64401	0	0.0001
    75	4.64401	0	0.0001
    76	4.64401	0	0.0001
    77	4.64401	0	0.0001
    78	4.64401	0	0.0001
    79	4.64401	0	0.0001
    80	4.64401	0	0.0001
    81	4.64401	0	0.0001
    82	4.64401	0	0.0001
    83	4.64401	0	0.0001
    84	4.64401	0	0.0001
    85	4.64401	0	0.0001
    86	4.64401	0	0.0001
    87	4.64401	0	0.0001
    88	4.64401	0	0.0001
    89	4.64401	0	0.0001
    90	4.64401	0	0.0001
    91	4.64401	0	0.0001
    92	4.64401	0	0.0001
    93	4.64401	0	0.0001
    94	4.64401	0	0.0001
    95	4.64401	0	0.0001
    96	4.64401	0	0.0001
    97	4.64401	0	0.0001
    98	4.64401	0	0.0001
    99	4.64401	0	0.0001
   100	4.64401	0	0.0001
   101	4.64401	0	0.0001

Measurement: tr1
  step	tr1	FROM	TO
     1	7.66013e-007	2.02475e-005	2.10135e-005
     2	7.66013e-007	2.02475e-005	2.10135e-005
     3	7.66013e-007	2.02475e-005	2.10135e-005
     4	7.66013e-007	2.02475e-005	2.10135e-005
     5	7.66013e-007	2.02475e-005	2.10135e-005
     6	7.66013e-007	2.02475e-005	2.10135e-005
     7	7.66013e-007	2.02475e-005	2.10135e-005
     8	7.66013e-007	2.02475e-005	2.10135e-005
     9	7.66013e-007	2.02475e-005	2.10135e-005
    10	7.66013e-007	2.02475e-005	2.10135e-005
    11	7.66013e-007	2.02475e-005	2.10135e-005
    12	7.66013e-007	2.02475e-005	2.10135e-005
    13	7.66013e-007	2.02475e-005	2.10135e-005
    14	7.66013e-007	2.02475e-005	2.10135e-005
    15	7.66013e-007	2.02475e-005	2.10135e-005
    16	7.66013e-007	2.02475e-005	2.10135e-005
    17	7.66013e-007	2.02475e-005	2.10135e-005
    18	7.66013e-007	2.02475e-005	2.10135e-005
    19	7.66013e-007	2.02475e-005	2.10135e-005
    20	7.66013e-007	2.02475e-005	2.10135e-005
    21	7.66013e-007	2.02475e-005	2.10135e-005
    22	7.66013e-007	2.02475e-005	2.10135e-005
    23	7.66013e-007	2.02475e-005	2.10135e-005
    24	7.66013e-007	2.02475e-005	2.10135e-005
    25	7.66013e-007	2.02475e-005	2.10135e-005
    26	7.66013e-007	2.02475e-005	2.10135e-005
    27	7.66013e-007	2.02475e-005	2.10135e-005
    28	7.66013e-007	2.02475e-005	2.10135e-005
    29	7.66013e-007	2.02475e-005	2.10135e-005
    30	7.66013e-007	2.02475e-005	2.10135e-005
    31	7.66013e-007	2.02475e-005	2.10135e-005
    32	7.66013e-007	2.02475e-005	2.10135e-005
    33	7.66013e-007	2.02475e-005	2.10135e-005
    34	7.66013e-007	2.02475e-005	2.10135e-005
    35	7.66013e-007	2.02475e-005	2.10135e-005
    36	7.66013e-007	2.02475e-005	2.10135e-005
    37	7.66013e-007	2.02475e-005	2.10135e-005
    38	7.66013e-007	2.02475e-005	2.10135e-005
    39	7.66013e-007	2.02475e-005	2.10135e-005
    40	7.66013e-007	2.02475e-005	2.10135e-005
    41	7.66013e-007	2.02475e-005	2.10135e-005
    42	7.66013e-007	2.02475e-005	2.10135e-005
    43	7.66013e-007	2.02475e-005	2.10135e-005
    44	7.66013e-007	2.02475e-005	2.10135e-005
    45	7.66013e-007	2.02475e-005	2.10135e-005
    46	7.66013e-007	2.02475e-005	2.10135e-005
    47	7.66013e-007	2.02475e-005	2.10135e-005
    48	7.66013e-007	2.02475e-005	2.10135e-005
    49	7.66013e-007	2.02475e-005	2.10135e-005
    50	7.66013e-007	2.02475e-005	2.10135e-005
    51	7.66013e-007	2.02475e-005	2.10135e-005
    52	7.66013e-007	2.02475e-005	2.10135e-005
    53	7.66013e-007	2.02475e-005	2.10135e-005
    54	7.66013e-007	2.02475e-005	2.10135e-005
    55	7.66013e-007	2.02475e-005	2.10135e-005
    56	7.66013e-007	2.02475e-005	2.10135e-005
    57	7.66013e-007	2.02475e-005	2.10135e-005
    58	7.66013e-007	2.02475e-005	2.10135e-005
    59	7.66013e-007	2.02475e-005	2.10135e-005
    60	7.66013e-007	2.02475e-005	2.10135e-005
    61	7.66013e-007	2.02475e-005	2.10135e-005
    62	7.66013e-007	2.02475e-005	2.10135e-005
    63	7.66013e-007	2.02475e-005	2.10135e-005
    64	7.66013e-007	2.02475e-005	2.10135e-005
    65	7.66013e-007	2.02475e-005	2.10135e-005
    66	7.66013e-007	2.02475e-005	2.10135e-005
    67	7.66013e-007	2.02475e-005	2.10135e-005
    68	7.66013e-007	2.02475e-005	2.10135e-005
    69	7.66013e-007	2.02475e-005	2.10135e-005
    70	7.66013e-007	2.02475e-005	2.10135e-005
    71	7.66013e-007	2.02475e-005	2.10135e-005
    72	7.66013e-007	2.02475e-005	2.10135e-005
    73	7.66013e-007	2.02475e-005	2.10135e-005
    74	7.66013e-007	2.02475e-005	2.10135e-005
    75	7.66013e-007	2.02475e-005	2.10135e-005
    76	7.66013e-007	2.02475e-005	2.10135e-005
    77	7.66013e-007	2.02475e-005	2.10135e-005
    78	7.66013e-007	2.02475e-005	2.10135e-005
    79	7.66013e-007	2.02475e-005	2.10135e-005
    80	7.66013e-007	2.02475e-005	2.10135e-005
    81	7.66013e-007	2.02475e-005	2.10135e-005
    82	7.66013e-007	2.02475e-005	2.10135e-005
    83	7.66013e-007	2.02475e-005	2.10135e-005
    84	7.66013e-007	2.02475e-005	2.10135e-005
    85	7.66013e-007	2.02475e-005	2.10135e-005
    86	7.66013e-007	2.02475e-005	2.10135e-005
    87	7.66013e-007	2.02475e-005	2.10135e-005
    88	7.66013e-007	2.02475e-005	2.10135e-005
    89	7.66013e-007	2.02475e-005	2.10135e-005
    90	7.66013e-007	2.02475e-005	2.10135e-005
    91	7.66013e-007	2.02475e-005	2.10135e-005
    92	7.66013e-007	2.02475e-005	2.10135e-005
    93	7.66013e-007	2.02475e-005	2.10135e-005
    94	7.66013e-007	2.02475e-005	2.10135e-005
    95	7.66013e-007	2.02475e-005	2.10135e-005
    96	7.66013e-007	2.02475e-005	2.10135e-005
    97	7.66013e-007	2.02475e-005	2.10135e-005
    98	7.66013e-007	2.02475e-005	2.10135e-005
    99	7.66013e-007	2.02475e-005	2.10135e-005
   100	7.66013e-007	2.02475e-005	2.10135e-005
   101	7.66013e-007	2.02475e-005	2.10135e-005

Measurement: tr2
  step	tr2	FROM	TO
     1	1.80141e-007	6.0141e-005	6.03212e-005
     2	1.8015e-007	6.0141e-005	6.03212e-005
     3	1.80159e-007	6.0141e-005	6.03212e-005
     4	1.80167e-007	6.0141e-005	6.03212e-005
     5	1.80176e-007	6.0141e-005	6.03212e-005
     6	1.80185e-007	6.0141e-005	6.03212e-005
     7	1.80194e-007	6.0141e-005	6.03212e-005
     8	1.80202e-007	6.0141e-005	6.03213e-005
     9	1.80211e-007	6.0141e-005	6.03213e-005
    10	1.8022e-007	6.0141e-005	6.03213e-005
    11	1.80228e-007	6.0141e-005	6.03213e-005
    12	1.80237e-007	6.0141e-005	6.03213e-005
    13	1.80246e-007	6.0141e-005	6.03213e-005
    14	1.80254e-007	6.0141e-005	6.03213e-005
    15	1.80263e-007	6.0141e-005	6.03213e-005
    16	1.80272e-007	6.0141e-005	6.03213e-005
    17	1.8028e-007	6.0141e-005	6.03213e-005
    18	1.80289e-007	6.0141e-005	6.03213e-005
    19	1.80298e-007	6.0141e-005	6.03213e-005
    20	1.80306e-007	6.0141e-005	6.03214e-005
    21	1.80315e-007	6.0141e-005	6.03214e-005
    22	1.80323e-007	6.0141e-005	6.03214e-005
    23	1.80332e-007	6.0141e-005	6.03214e-005
    24	1.8034e-007	6.0141e-005	6.03214e-005
    25	1.80349e-007	6.0141e-005	6.03214e-005
    26	1.80357e-007	6.0141e-005	6.03214e-005
    27	1.80366e-007	6.0141e-005	6.03214e-005
    28	1.80375e-007	6.0141e-005	6.03214e-005
    29	1.80383e-007	6.0141e-005	6.03214e-005
    30	1.80392e-007	6.0141e-005	6.03214e-005
    31	1.804e-007	6.0141e-005	6.03214e-005
    32	1.80408e-007	6.0141e-005	6.03215e-005
    33	1.80417e-007	6.0141e-005	6.03215e-005
    34	1.80425e-007	6.0141e-005	6.03215e-005
    35	1.80434e-007	6.0141e-005	6.03215e-005
    36	1.80442e-007	6.0141e-005	6.03215e-005
    37	1.80451e-007	6.0141e-005	6.03215e-005
    38	1.80459e-007	6.0141e-005	6.03215e-005
    39	1.80467e-007	6.0141e-005	6.03215e-005
    40	1.80466e-007	6.0141e-005	6.03215e-005
    41	1.8046e-007	6.0141e-005	6.03215e-005
    42	1.80455e-007	6.0141e-005	6.03215e-005
    43	1.80449e-007	6.0141e-005	6.03215e-005
    44	1.80444e-007	6.0141e-005	6.03215e-005
    45	1.80439e-007	6.0141e-005	6.03215e-005
    46	1.80433e-007	6.0141e-005	6.03215e-005
    47	1.80428e-007	6.0141e-005	6.03215e-005
    48	1.80422e-007	6.0141e-005	6.03215e-005
    49	1.80417e-007	6.0141e-005	6.03215e-005
    50	1.80411e-007	6.0141e-005	6.03215e-005
    51	1.80406e-007	6.0141e-005	6.03215e-005
    52	1.804e-007	6.0141e-005	6.03214e-005
    53	1.80395e-007	6.0141e-005	6.03214e-005
    54	1.80389e-007	6.0141e-005	6.03214e-005
    55	1.80384e-007	6.0141e-005	6.03214e-005
    56	1.80378e-007	6.0141e-005	6.03214e-005
    57	1.80373e-007	6.0141e-005	6.03214e-005
    58	1.80367e-007	6.0141e-005	6.03214e-005
    59	1.80362e-007	6.0141e-005	6.03214e-005
    60	1.80356e-007	6.0141e-005	6.03214e-005
    61	1.80351e-007	6.0141e-005	6.03214e-005
    62	1.80345e-007	6.0141e-005	6.03214e-005
    63	1.8034e-007	6.0141e-005	6.03214e-005
    64	1.80334e-007	6.0141e-005	6.03214e-005
    65	1.80329e-007	6.0141e-005	6.03214e-005
    66	1.80323e-007	6.0141e-005	6.03214e-005
    67	1.80318e-007	6.0141e-005	6.03214e-005
    68	1.80312e-007	6.0141e-005	6.03214e-005
    69	1.80307e-007	6.0141e-005	6.03214e-005
    70	1.80301e-007	6.0141e-005	6.03213e-005
    71	1.80295e-007	6.0141e-005	6.03213e-005
    72	1.8029e-007	6.0141e-005	6.03213e-005
    73	1.80284e-007	6.0141e-005	6.03213e-005
    74	1.80279e-007	6.0141e-005	6.03213e-005
    75	1.80273e-007	6.0141e-005	6.03213e-005
    76	1.80267e-007	6.0141e-005	6.03213e-005
    77	1.80262e-007	6.0141e-005	6.03213e-005
    78	1.80256e-007	6.0141e-005	6.03213e-005
    79	1.80251e-007	6.0141e-005	6.03213e-005
    80	1.80245e-007	6.0141e-005	6.03213e-005
    81	1.80239e-007	6.0141e-005	6.03213e-005
    82	1.80234e-007	6.0141e-005	6.03213e-005
    83	1.80228e-007	6.0141e-005	6.03213e-005
    84	1.80222e-007	6.0141e-005	6.03213e-005
    85	1.80217e-007	6.0141e-005	6.03213e-005
    86	1.80211e-007	6.0141e-005	6.03213e-005
    87	1.80205e-007	6.0141e-005	6.03213e-005
    88	1.802e-007	6.0141e-005	6.03212e-005
    89	1.80194e-007	6.0141e-005	6.03212e-005
    90	1.80188e-007	6.0141e-005	6.03212e-005
    91	1.80182e-007	6.0141e-005	6.03212e-005
    92	1.80177e-007	6.0141e-005	6.03212e-005
    93	1.80171e-007	6.0141e-005	6.03212e-005
    94	1.80165e-007	6.0141e-005	6.03212e-005
    95	1.8016e-007	6.0141e-005	6.03212e-005
    96	1.80154e-007	6.0141e-005	6.03212e-005
    97	1.80148e-007	6.0141e-005	6.03212e-005
    98	1.80142e-007	6.0141e-005	6.03212e-005
    99	1.80137e-007	6.0141e-005	6.03212e-005
   100	1.80131e-007	6.0141e-005	6.03212e-005
   101	1.80125e-007	6.0141e-005	6.03212e-005

Measurement: vth
  step	v(n004)	at
     1	8.84522	2.05954e-005
     2	8.84522	2.05954e-005
     3	8.84522	2.05954e-005
     4	8.84522	2.05954e-005
     5	8.84522	2.05954e-005
     6	8.84522	2.05954e-005
     7	8.84522	2.05954e-005
     8	8.84522	2.05954e-005
     9	8.84522	2.05954e-005
    10	8.84522	2.05954e-005
    11	8.84522	2.05954e-005
    12	8.84522	2.05954e-005
    13	8.84522	2.05954e-005
    14	8.84522	2.05954e-005
    15	8.84522	2.05954e-005
    16	8.84522	2.05954e-005
    17	8.84522	2.05954e-005
    18	8.84522	2.05954e-005
    19	8.84522	2.05954e-005
    20	8.84522	2.05954e-005
    21	8.84522	2.05954e-005
    22	8.84522	2.05954e-005
    23	8.84522	2.05954e-005
    24	8.84522	2.05954e-005
    25	8.84522	2.05954e-005
    26	8.84522	2.05954e-005
    27	8.84522	2.05954e-005
    28	8.84522	2.05954e-005
    29	8.84522	2.05954e-005
    30	8.84522	2.05954e-005
    31	8.84522	2.05954e-005
    32	8.84522	2.05954e-005
    33	8.84522	2.05954e-005
    34	8.84522	2.05954e-005
    35	8.84522	2.05954e-005
    36	8.84522	2.05954e-005
    37	8.84522	2.05954e-005
    38	8.84522	2.05954e-005
    39	8.84522	2.05954e-005
    40	8.84522	2.05954e-005
    41	8.84522	2.05954e-005
    42	8.84522	2.05954e-005
    43	8.84522	2.05954e-005
    44	8.84522	2.05954e-005
    45	8.84522	2.05954e-005
    46	8.84522	2.05954e-005
    47	8.84522	2.05954e-005
    48	8.84522	2.05954e-005
    49	8.84522	2.05954e-005
    50	8.84522	2.05954e-005
    51	8.84522	2.05954e-005
    52	8.84522	2.05954e-005
    53	8.84522	2.05954e-005
    54	8.84522	2.05954e-005
    55	8.84522	2.05954e-005
    56	8.84522	2.05954e-005
    57	8.84522	2.05954e-005
    58	8.84522	2.05954e-005
    59	8.84522	2.05954e-005
    60	8.84522	2.05954e-005
    61	8.84522	2.05954e-005
    62	8.84522	2.05954e-005
    63	8.84522	2.05954e-005
    64	8.84522	2.05954e-005
    65	8.84522	2.05954e-005
    66	8.84522	2.05954e-005
    67	8.84522	2.05954e-005
    68	8.84522	2.05954e-005
    69	8.84522	2.05954e-005
    70	8.84522	2.05954e-005
    71	8.84522	2.05954e-005
    72	8.84522	2.05954e-005
    73	8.84522	2.05954e-005
    74	8.84522	2.05954e-005
    75	8.84522	2.05954e-005
    76	8.84522	2.05954e-005
    77	8.84522	2.05954e-005
    78	8.84522	2.05954e-005
    79	8.84522	2.05954e-005
    80	8.84522	2.05954e-005
    81	8.84522	2.05954e-005
    82	8.84522	2.05954e-005
    83	8.84522	2.05954e-005
    84	8.84522	2.05954e-005
    85	8.84522	2.05954e-005
    86	8.84522	2.05954e-005
    87	8.84522	2.05954e-005
    88	8.84522	2.05954e-005
    89	8.84522	2.05954e-005
    90	8.84522	2.05954e-005
    91	8.84522	2.05954e-005
    92	8.84522	2.05954e-005
    93	8.84522	2.05954e-005
    94	8.84522	2.05954e-005
    95	8.84522	2.05954e-005
    96	8.84522	2.05954e-005
    97	8.84522	2.05954e-005
    98	8.84522	2.05954e-005
    99	8.84522	2.05954e-005
   100	8.84522	2.05954e-005
   101	8.84522	2.05954e-005


Date: Mon Mar 21 20:42:06 2022
Total elapsed time: 1.146 seconds.

tnom = 27
temp = 27
method = modified trap
totiter = 2260
traniter = 2237
tranpoints = 1110
accept = 1091
rejected = 19
matrix size = 11
fillins = 0
solver = Normal
Matrix Compiler1: 674 bytes object code size  0.1/0.1/[0.1]
Matrix Compiler2: 847 bytes object code size  0.1/0.1/[0.1]

