Circuit: * C:\Users\user\Documents\LTspiceXVII\file\Montecarlo\monte_SiC.asc

Direct Newton iteration for .op point succeeded.
.step tol1=0
.step tol1=0.01
.step tol1=0.02
.step tol1=0.03
.step tol1=0.04
.step tol1=0.05
.step tol1=0.06
.step tol1=0.07
.step tol1=0.08
.step tol1=0.09
.step tol1=0.1
.step tol1=0.11
.step tol1=0.12
.step tol1=0.13
.step tol1=0.14
.step tol1=0.15
.step tol1=0.16
.step tol1=0.17
.step tol1=0.18
.step tol1=0.19
.step tol1=0.2
.step tol1=0.21
.step tol1=0.22
.step tol1=0.23
.step tol1=0.24
.step tol1=0.25
.step tol1=0.26
.step tol1=0.27
.step tol1=0.28
.step tol1=0.29
.step tol1=0.3
.step tol1=0.31
.step tol1=0.32
.step tol1=0.33
.step tol1=0.34
.step tol1=0.35
.step tol1=0.36
.step tol1=0.37
.step tol1=0.38
.step tol1=0.39
.step tol1=0.4
.step tol1=0.41
.step tol1=0.42
.step tol1=0.43
.step tol1=0.44
.step tol1=0.45
.step tol1=0.46
.step tol1=0.47
.step tol1=0.48
.step tol1=0.49
.step tol1=0.5
.step tol1=0.51
.step tol1=0.52
.step tol1=0.53
.step tol1=0.54
.step tol1=0.55
.step tol1=0.56
.step tol1=0.57
.step tol1=0.58
.step tol1=0.59
.step tol1=0.6
.step tol1=0.61
.step tol1=0.62
.step tol1=0.63
.step tol1=0.64
.step tol1=0.65
.step tol1=0.66
.step tol1=0.67
.step tol1=0.68
.step tol1=0.69
.step tol1=0.7
.step tol1=0.71
.step tol1=0.72
.step tol1=0.73
.step tol1=0.74
.step tol1=0.75
.step tol1=0.76
.step tol1=0.77
.step tol1=0.78
.step tol1=0.79
.step tol1=0.8
.step tol1=0.81
.step tol1=0.82
.step tol1=0.83
.step tol1=0.84
.step tol1=0.85
.step tol1=0.86
.step tol1=0.87
.step tol1=0.88
.step tol1=0.89
.step tol1=0.9
.step tol1=0.91
.step tol1=0.92
.step tol1=0.93
.step tol1=0.94
.step tol1=0.95
.step tol1=0.96
.step tol1=0.97
.step tol1=0.98
.step tol1=0.99
.step tol1=1


Measurement: imax
  step	MAX(-i(v1))	FROM	TO
     1	4.64401	0	0.0001
     2	4.57911	0	0.0001
     3	4.51468	0	0.0001
     4	4.4507	0	0.0001
     5	4.38718	0	0.0001
     6	4.32412	0	0.0001
     7	4.26152	0	0.0001
     8	4.19937	0	0.0001
     9	4.13768	0	0.0001
    10	4.07644	0	0.0001
    11	4.01567	0	0.0001
    12	3.95539	0	0.0001
    13	3.89548	0	0.0001
    14	3.83607	0	0.0001
    15	3.77712	0	0.0001
    16	3.71862	0	0.0001
    17	3.66058	0	0.0001
    18	3.603	0	0.0001
    19	3.54587	0	0.0001
    20	3.4892	0	0.0001
    21	3.43298	0	0.0001
    22	3.37722	0	0.0001
    23	3.32191	0	0.0001
    24	3.26706	0	0.0001
    25	3.21267	0	0.0001
    26	3.15873	0	0.0001
    27	3.10524	0	0.0001
    28	3.05221	0	0.0001
    29	2.99964	0	0.0001
    30	2.94754	0	0.0001
    31	2.89586	0	0.0001
    32	2.84465	0	0.0001
    33	2.79389	0	0.0001
    34	2.74359	0	0.0001
    35	2.69375	0	0.0001
    36	2.64436	0	0.0001
    37	2.59542	0	0.0001
    38	2.54694	0	0.0001
    39	2.49892	0	0.0001
    40	2.45135	0	0.0001
    41	2.40423	0	0.0001
    42	2.35757	0	0.0001
    43	2.31136	0	0.0001
    44	2.26561	0	0.0001
    45	2.22031	0	0.0001
    46	2.17546	0	0.0001
    47	2.13108	0	0.0001
    48	2.08714	0	0.0001
    49	2.04366	0	0.0001
    50	2.00063	0	0.0001
    51	1.95806	0	0.0001
    52	1.91595	0	0.0001
    53	1.87428	0	0.0001
    54	1.83308	0	0.0001
    55	1.79232	0	0.0001
    56	1.75202	0	0.0001
    57	1.71218	0	0.0001
    58	1.67279	0	0.0001
    59	1.63386	0	0.0001
    60	1.59538	0	0.0001
    61	1.55735	0	0.0001
    62	1.51978	0	0.0001
    63	1.48267	0	0.0001
    64	1.44601	0	0.0001
    65	1.4098	0	0.0001
    66	1.37405	0	0.0001
    67	1.33876	0	0.0001
    68	1.30392	0	0.0001
    69	1.26954	0	0.0001
    70	1.23561	0	0.0001
    71	1.20214	0	0.0001
    72	1.16912	0	0.0001
    73	1.13656	0	0.0001
    74	1.10445	0	0.0001
    75	1.0728	0	0.0001
    76	1.04161	0	0.0001
    77	1.01087	0	0.0001
    78	0.980593	0	0.0001
    79	0.950769	0	0.0001
    80	0.921402	0	0.0001
    81	0.89249	0	0.0001
    82	0.864035	0	0.0001
    83	0.836037	0	0.0001
    84	0.808496	0	0.0001
    85	0.781412	0	0.0001
    86	0.754785	0	0.0001
    87	0.728615	0	0.0001
    88	0.702902	0	0.0001
    89	0.677647	0	0.0001
    90	0.65285	0	0.0001
    91	0.62851	0	0.0001
    92	0.604629	0	0.0001
    93	0.581206	0	0.0001
    94	0.558241	0	0.0001
    95	0.535734	0	0.0001
    96	0.513687	0	0.0001
    97	0.4921	0	0.0001
    98	0.470971	0	0.0001
    99	0.450304	0	0.0001
   100	0.430097	0	0.0001
   101	0.41035	0	0.0001

Measurement: tr1
  step	tr1	FROM	TO
     1	7.66013e-007	2.02475e-005	2.10135e-005
     2	7.63658e-007	2.02485e-005	2.10121e-005
     3	7.61339e-007	2.02494e-005	2.10107e-005
     4	7.58625e-007	2.02503e-005	2.10089e-005
     5	7.5627e-007	2.02511e-005	2.10074e-005
     6	7.53857e-007	2.02519e-005	2.10058e-005
     7	7.51504e-007	2.02527e-005	2.10042e-005
     8	7.49108e-007	2.02534e-005	2.10025e-005
     9	7.46952e-007	2.02542e-005	2.10011e-005
    10	7.45035e-007	2.02555e-005	2.10005e-005
    11	7.43066e-007	2.02568e-005	2.09999e-005
    12	7.41433e-007	2.02581e-005	2.09996e-005
    13	7.38957e-007	2.02618e-005	2.10007e-005
    14	7.36911e-007	2.02637e-005	2.10006e-005
    15	7.3451e-007	2.02656e-005	2.10001e-005
    16	7.32464e-007	2.02675e-005	2.1e-005
    17	7.30712e-007	2.02694e-005	2.10001e-005
    18	7.28673e-007	2.02713e-005	2.1e-005
    19	7.26665e-007	2.02732e-005	2.09999e-005
    20	7.24696e-007	2.02751e-005	2.09998e-005
    21	7.22774e-007	2.02769e-005	2.09997e-005
    22	7.20906e-007	2.02788e-005	2.09997e-005
    23	7.19103e-007	2.02806e-005	2.09997e-005
    24	7.17374e-007	2.02823e-005	2.09997e-005
    25	7.15727e-007	2.0284e-005	2.09997e-005
    26	7.14311e-007	2.02853e-005	2.09996e-005
    27	7.13085e-007	2.02865e-005	2.09996e-005
    28	7.11882e-007	2.02876e-005	2.09995e-005
    29	7.10731e-007	2.02887e-005	2.09994e-005
    30	7.12652e-007	2.02856e-005	2.09982e-005
    31	7.11027e-007	2.02873e-005	2.09983e-005
    32	7.09393e-007	2.02891e-005	2.09985e-005
    33	7.08069e-007	2.02909e-005	2.0999e-005
    34	7.06908e-007	2.02928e-005	2.09997e-005
    35	7.05463e-007	2.02948e-005	2.10003e-005
    36	7.0376e-007	2.0297e-005	2.10008e-005
    37	7.01885e-007	2.02993e-005	2.10012e-005
    38	7.00037e-007	2.03018e-005	2.10018e-005
    39	6.98101e-007	2.03043e-005	2.10024e-005
    40	6.96246e-007	2.0307e-005	2.10032e-005
    41	6.94386e-007	2.03098e-005	2.10042e-005
    42	6.92422e-007	2.03128e-005	2.10052e-005
    43	6.90344e-007	2.03159e-005	2.10063e-005
    44	6.88146e-007	2.03192e-005	2.10074e-005
    45	6.87454e-007	2.03211e-005	2.10085e-005
    46	6.86778e-007	2.03229e-005	2.10097e-005
    47	6.86115e-007	2.03248e-005	2.10109e-005
    48	6.85464e-007	2.03267e-005	2.10122e-005
    49	6.84825e-007	2.03287e-005	2.10135e-005
    50	6.84196e-007	2.03307e-005	2.10148e-005
    51	6.83577e-007	2.03327e-005	2.10162e-005
    52	6.82965e-007	2.03347e-005	2.10177e-005
    53	6.82351e-007	2.03368e-005	2.10191e-005
    54	6.8175e-007	2.03389e-005	2.10206e-005
    55	6.81161e-007	2.0341e-005	2.10222e-005
    56	6.80567e-007	2.03432e-005	2.10238e-005
    57	6.79973e-007	2.03455e-005	2.10254e-005
    58	6.79379e-007	2.03477e-005	2.10271e-005
    59	6.78783e-007	2.035e-005	2.10288e-005
    60	6.78184e-007	2.03524e-005	2.10305e-005
    61	6.77579e-007	2.03547e-005	2.10323e-005
    62	6.76968e-007	2.03572e-005	2.10341e-005
    63	6.76347e-007	2.03596e-005	2.1036e-005
    64	6.75717e-007	2.03622e-005	2.10379e-005
    65	6.75073e-007	2.03647e-005	2.10398e-005
    66	6.74503e-007	2.03673e-005	2.10418e-005
    67	6.74011e-007	2.03698e-005	2.10438e-005
    68	6.73445e-007	2.03723e-005	2.10458e-005
    69	6.72787e-007	2.03751e-005	2.10478e-005
    70	6.72021e-007	2.03779e-005	2.10499e-005
    71	6.71126e-007	2.03809e-005	2.10521e-005
    72	6.70084e-007	2.03841e-005	2.10542e-005
    73	6.68873e-007	2.03876e-005	2.10564e-005
    74	6.67473e-007	2.03912e-005	2.10587e-005
    75	6.65865e-007	2.03951e-005	2.10609e-005
    76	6.64006e-007	2.03992e-005	2.10632e-005
    77	6.61858e-007	2.04037e-005	2.10656e-005
    78	6.59414e-007	2.04085e-005	2.10679e-005
    79	6.56612e-007	2.04137e-005	2.10703e-005
    80	6.54687e-007	2.04181e-005	2.10728e-005
    81	6.54249e-007	2.0421e-005	2.10753e-005
    82	6.53775e-007	2.0424e-005	2.10778e-005
    83	6.5326e-007	2.04271e-005	2.10803e-005
    84	6.52701e-007	2.04302e-005	2.10829e-005
    85	6.52096e-007	2.04334e-005	2.10855e-005
    86	6.51441e-007	2.04367e-005	2.10881e-005
    87	6.50731e-007	2.04401e-005	2.10908e-005
    88	6.49963e-007	2.04436e-005	2.10935e-005
    89	6.49132e-007	2.04471e-005	2.10962e-005
    90	6.48234e-007	2.04508e-005	2.1099e-005
    91	6.47889e-007	2.04545e-005	2.11024e-005
    92	6.483e-007	2.04583e-005	2.11066e-005
    93	6.48913e-007	2.04618e-005	2.11108e-005
    94	6.49337e-007	2.04657e-005	2.1115e-005
    95	6.49524e-007	2.04697e-005	2.11193e-005
    96	6.4942e-007	2.04742e-005	2.11236e-005
    97	6.4897e-007	2.0479e-005	2.1128e-005
    98	6.48096e-007	2.04844e-005	2.11324e-005
    99	6.46726e-007	2.04902e-005	2.11369e-005
   100	6.44757e-007	2.04967e-005	2.11415e-005
   101	6.42081e-007	2.0504e-005	2.11461e-005

Measurement: tr2
  step	tr2	FROM	TO
     1	1.80141e-007	6.0141e-005	6.03212e-005
     2	1.74588e-007	6.01407e-005	6.03153e-005
     3	1.71066e-007	6.01403e-005	6.03114e-005
     4	1.65872e-007	6.014e-005	6.03058e-005
     5	1.73526e-007	6.01396e-005	6.03131e-005
     6	1.62128e-007	6.01393e-005	6.03014e-005
     7	1.66648e-007	6.01389e-005	6.03055e-005
     8	1.66487e-007	6.01429e-005	6.03094e-005
     9	1.64739e-007	6.01381e-005	6.03028e-005
    10	1.58286e-007	6.01386e-005	6.02969e-005
    11	1.54067e-007	6.01388e-005	6.02928e-005
    12	1.56982e-007	6.01378e-005	6.02948e-005
    13	1.50161e-007	6.01371e-005	6.02873e-005
    14	1.58563e-007	6.01357e-005	6.02942e-005
    15	1.57314e-007	6.01354e-005	6.02927e-005
    16	1.56036e-007	6.01352e-005	6.02912e-005
    17	1.54728e-007	6.0135e-005	6.02897e-005
    18	1.53387e-007	6.01347e-005	6.02881e-005
    19	1.52012e-007	6.01345e-005	6.02865e-005
    20	1.50612e-007	6.01343e-005	6.02849e-005
    21	1.49192e-007	6.0134e-005	6.02832e-005
    22	1.47715e-007	6.01338e-005	6.02815e-005
    23	1.46173e-007	6.01336e-005	6.02798e-005
    24	1.44556e-007	6.01334e-005	6.02779e-005
    25	1.42856e-007	6.01332e-005	6.0276e-005
    26	1.41062e-007	6.0133e-005	6.0274e-005
    27	1.39165e-007	6.01327e-005	6.02719e-005
    28	1.37157e-007	6.01325e-005	6.02697e-005
    29	1.35021e-007	6.01323e-005	6.02674e-005
    30	1.30759e-007	6.01353e-005	6.02661e-005
    31	1.29347e-007	6.01342e-005	6.02635e-005
    32	1.29594e-007	6.01328e-005	6.02624e-005
    33	1.28781e-007	6.01329e-005	6.02617e-005
    34	1.24083e-007	6.01342e-005	6.02583e-005
    35	1.23193e-007	6.01338e-005	6.0257e-005
    36	1.22092e-007	6.01335e-005	6.02556e-005
    37	1.20963e-007	6.01332e-005	6.02542e-005
    38	1.19788e-007	6.0133e-005	6.02527e-005
    39	1.1859e-007	6.01327e-005	6.02513e-005
    40	1.17352e-007	6.01324e-005	6.02498e-005
    41	1.16071e-007	6.01322e-005	6.02482e-005
    42	1.1474e-007	6.01319e-005	6.02466e-005
    43	1.13353e-007	6.01317e-005	6.0245e-005
    44	1.11904e-007	6.01314e-005	6.02433e-005
    45	1.10395e-007	6.01311e-005	6.02415e-005
    46	1.0883e-007	6.01309e-005	6.02397e-005
    47	1.07157e-007	6.01307e-005	6.02378e-005
    48	1.05359e-007	6.01304e-005	6.02358e-005
    49	1.04086e-007	6.01302e-005	6.02343e-005
    50	1.03349e-007	6.01299e-005	6.02333e-005
    51	1.02583e-007	6.01297e-005	6.02323e-005
    52	1.01786e-007	6.01294e-005	6.02312e-005
    53	1.00954e-007	6.01292e-005	6.02302e-005
    54	1.00086e-007	6.0129e-005	6.02291e-005
    55	9.91774e-008	6.01287e-005	6.02279e-005
    56	9.82252e-008	6.01285e-005	6.02267e-005
    57	9.7225e-008	6.01283e-005	6.02255e-005
    58	9.61723e-008	6.01281e-005	6.02242e-005
    59	9.50616e-008	6.01278e-005	6.02229e-005
    60	9.38863e-008	6.01276e-005	6.02215e-005
    61	9.2639e-008	6.01274e-005	6.022e-005
    62	9.13105e-008	6.01272e-005	6.02185e-005
    63	8.98886e-008	6.01269e-005	6.02168e-005
    64	8.89064e-008	6.01267e-005	6.02156e-005
    65	8.81823e-008	6.01265e-005	6.02147e-005
    66	8.74294e-008	6.01263e-005	6.02137e-005
    67	8.6643e-008	6.01261e-005	6.02127e-005
    68	8.58193e-008	6.01258e-005	6.02117e-005
    69	8.49559e-008	6.01256e-005	6.02106e-005
    70	8.40306e-008	6.01254e-005	6.02095e-005
    71	8.30341e-008	6.01252e-005	6.02082e-005
    72	8.19555e-008	6.0125e-005	6.0207e-005
    73	8.12544e-008	6.01248e-005	6.0206e-005
    74	8.05225e-008	6.01246e-005	6.02051e-005
    75	7.97543e-008	6.01244e-005	6.02041e-005
    76	7.89431e-008	6.01242e-005	6.02031e-005
    77	7.81296e-008	6.01239e-005	6.02021e-005
    78	7.7412e-008	6.01237e-005	6.02012e-005
    79	7.66567e-008	6.01235e-005	6.02002e-005
    80	7.61278e-008	6.01233e-005	6.01995e-005
    81	7.56625e-008	6.01231e-005	6.01988e-005
    82	7.52004e-008	6.01229e-005	6.01981e-005
    83	7.47415e-008	6.01227e-005	6.01975e-005
    84	7.42861e-008	6.01225e-005	6.01968e-005
    85	7.38344e-008	6.01223e-005	6.01961e-005
    86	7.33867e-008	6.01221e-005	6.01955e-005
    87	7.29433e-008	6.01219e-005	6.01948e-005
    88	7.25046e-008	6.01217e-005	6.01942e-005
    89	7.21175e-008	6.01215e-005	6.01936e-005
    90	7.17905e-008	6.01212e-005	6.01929e-005
    91	7.1469e-008	6.01209e-005	6.01923e-005
    92	7.11538e-008	6.01206e-005	6.01917e-005
    93	7.08458e-008	6.01203e-005	6.01911e-005
    94	7.05833e-008	6.012e-005	6.01905e-005
    95	7.04088e-008	6.01197e-005	6.01901e-005
    96	7.02118e-008	6.01194e-005	6.01896e-005
    97	6.99837e-008	6.01191e-005	6.01891e-005
    98	6.97158e-008	6.01188e-005	6.01885e-005
    99	6.93983e-008	6.01185e-005	6.01879e-005
   100	6.90204e-008	6.01182e-005	6.01872e-005
   101	6.85687e-008	6.01179e-005	6.01865e-005

Measurement: vth
  step	v(n004)	at
     1	8.84522	2.05954e-005
     2	8.88635	2.06052e-005
     3	8.92762	2.06153e-005
     4	8.96928	2.06252e-005
     5	9.01062	2.0636e-005
     6	9.05208	2.0647e-005
     7	9.09365	2.06585e-005
     8	9.1353	2.06703e-005
     9	9.17704	2.06826e-005
    10	9.21931	2.06948e-005
    11	9.26125	2.07083e-005
    12	9.30174	2.07256e-005
    13	9.34252	2.07431e-005
    14	9.38402	2.07597e-005
    15	9.42594	2.07758e-005
    16	9.46707	2.07967e-005
    17	9.50789	2.08203e-005
    18	9.54907	2.08437e-005
    19	9.59059	2.08672e-005
    20	9.63161	2.08973e-005
    21	9.67254	2.09308e-005
    22	9.71379	2.09648e-005
    23	9.75469	2.10097e-005
    24	9.79572	2.10586e-005
    25	9.83664	2.1123e-005
    26	9.87759	2.12033e-005
    27	9.91851	2.13192e-005
    28	9.95941	2.15186e-005
    29	0	0
    30	0	0
    31	0	0
    32	0	0
    33	0	0
    34	0	0
    35	0	0
    36	0	0
    37	0	0
    38	0	0
    39	0	0
    40	0	0
    41	0	0
    42	0	0
    43	0	0
    44	0	0
    45	0	0
    46	0	0
    47	0	0
    48	0	0
    49	0	0
    50	0	0
    51	0	0
    52	0	0
    53	0	0
    54	0	0
    55	0	0
    56	0	0
    57	0	0
    58	0	0
    59	0	0
    60	0	0
    61	0	0
    62	0	0
    63	0	0
    64	0	0
    65	0	0
    66	0	0
    67	0	0
    68	0	0
    69	0	0
    70	0	0
    71	0	0
    72	0	0
    73	0	0
    74	0	0
    75	0	0
    76	0	0
    77	0	0
    78	0	0
    79	0	0
    80	0	0
    81	0	0
    82	0	0
    83	0	0
    84	0	0
    85	0	0
    86	0	0
    87	0	0
    88	0	0
    89	0	0
    90	0	0
    91	0	0
    92	0	0
    93	0	0
    94	0	0
    95	0	0
    96	0	0
    97	0	0
    98	0	0
    99	0	0
   100	0	0
   101	0	0


Date: Mon Mar 21 20:43:42 2022
Total elapsed time: 1.642 seconds.

tnom = 27
temp = 27
method = modified trap
totiter = 2248
traniter = 2225
tranpoints = 1101
accept = 1084
rejected = 17
matrix size = 11
fillins = 0
solver = Normal
Matrix Compiler1: 674 bytes object code size  0.1/0.1/[0.0]
Matrix Compiler2: 847 bytes object code size  0.1/0.1/[0.1]

