Circuit: * C:\Users\user\Documents\LTspiceXVII\file\Montecarlo\monte_SiC.asc

Direct Newton iteration for .op point succeeded.
.step tol1=0
.step tol1=0.01
.step tol1=0.02
.step tol1=0.03
.step tol1=0.04
.step tol1=0.05
.step tol1=0.06
.step tol1=0.07
.step tol1=0.08
.step tol1=0.09
.step tol1=0.1
.step tol1=0.11
.step tol1=0.12
.step tol1=0.13
.step tol1=0.14
.step tol1=0.15
.step tol1=0.16
.step tol1=0.17
.step tol1=0.18
.step tol1=0.19
.step tol1=0.2
.step tol1=0.21
.step tol1=0.22
.step tol1=0.23
.step tol1=0.24
.step tol1=0.25
.step tol1=0.26
.step tol1=0.27
.step tol1=0.28
.step tol1=0.29
.step tol1=0.3
.step tol1=0.31
.step tol1=0.32
.step tol1=0.33
.step tol1=0.34
.step tol1=0.35
.step tol1=0.36
.step tol1=0.37
.step tol1=0.38
.step tol1=0.39
.step tol1=0.4
.step tol1=0.41
.step tol1=0.42
.step tol1=0.43
.step tol1=0.44
.step tol1=0.45
.step tol1=0.46
.step tol1=0.47
.step tol1=0.48
.step tol1=0.49
.step tol1=0.5
.step tol1=0.51
.step tol1=0.52
.step tol1=0.53
.step tol1=0.54
.step tol1=0.55
.step tol1=0.56
.step tol1=0.57
.step tol1=0.58
.step tol1=0.59
.step tol1=0.6
.step tol1=0.61
.step tol1=0.62
.step tol1=0.63
.step tol1=0.64
.step tol1=0.65
.step tol1=0.66
.step tol1=0.67
.step tol1=0.68
.step tol1=0.69
.step tol1=0.7
.step tol1=0.71
.step tol1=0.72
.step tol1=0.73
.step tol1=0.74
.step tol1=0.75
.step tol1=0.76
.step tol1=0.77
.step tol1=0.78
.step tol1=0.79
.step tol1=0.8
.step tol1=0.81
.step tol1=0.82
.step tol1=0.83
.step tol1=0.84
.step tol1=0.85
.step tol1=0.86
.step tol1=0.87
.step tol1=0.88
.step tol1=0.89
.step tol1=0.9
.step tol1=0.91
.step tol1=0.92
.step tol1=0.93
.step tol1=0.94
.step tol1=0.95
.step tol1=0.96
.step tol1=0.97
.step tol1=0.98
.step tol1=0.99
.step tol1=1


Measurement: imax
  step	MAX(-i(v1))	FROM	TO
     1	4.64401	0	0.0001
     2	4.64401	0	0.0001
     3	4.64401	0	0.0001
     4	4.64401	0	0.0001
     5	4.64402	0	0.0001
     6	4.64402	0	0.0001
     7	4.64401	0	0.0001
     8	4.64401	0	0.0001
     9	4.64401	0	0.0001
    10	4.64401	0	0.0001
    11	4.64401	0	0.0001
    12	4.64401	0	0.0001
    13	4.64401	0	0.0001
    14	4.64401	0	0.0001
    15	4.64401	0	0.0001
    16	4.64401	0	0.0001
    17	4.64401	0	0.0001
    18	4.64401	0	0.0001
    19	4.64401	0	0.0001
    20	4.64401	0	0.0001
    21	4.64401	0	0.0001
    22	4.64401	0	0.0001
    23	4.64401	0	0.0001
    24	4.64401	0	0.0001
    25	4.64401	0	0.0001
    26	4.64401	0	0.0001
    27	4.64401	0	0.0001
    28	4.64401	0	0.0001
    29	4.64401	0	0.0001
    30	4.64401	0	0.0001
    31	4.64401	0	0.0001
    32	4.64401	0	0.0001
    33	4.64401	0	0.0001
    34	4.64401	0	0.0001
    35	4.64401	0	0.0001
    36	4.64401	0	0.0001
    37	4.64401	0	0.0001
    38	4.64401	0	0.0001
    39	4.64401	0	0.0001
    40	4.64401	0	0.0001
    41	4.64401	0	0.0001
    42	4.64401	0	0.0001
    43	4.64401	0	0.0001
    44	4.64401	0	0.0001
    45	4.64401	0	0.0001
    46	4.64401	0	0.0001
    47	4.64401	0	0.0001
    48	4.64401	0	0.0001
    49	4.64401	0	0.0001
    50	4.64401	0	0.0001
    51	4.64401	0	0.0001
    52	4.64402	0	0.0001
    53	4.64402	0	0.0001
    54	4.64401	0	0.0001
    55	4.64402	0	0.0001
    56	4.64401	0	0.0001
    57	4.64402	0	0.0001
    58	4.64401	0	0.0001
    59	4.64401	0	0.0001
    60	4.64401	0	0.0001
    61	4.64403	0	0.0001
    62	4.64402	0	0.0001
    63	4.64402	0	0.0001
    64	4.64401	0	0.0001
    65	4.64401	0	0.0001
    66	4.64401	0	0.0001
    67	4.64401	0	0.0001
    68	4.64401	0	0.0001
    69	4.64402	0	0.0001
    70	4.64401	0	0.0001
    71	4.64401	0	0.0001
    72	4.64403	0	0.0001
    73	4.64402	0	0.0001
    74	4.64401	0	0.0001
    75	4.64401	0	0.0001
    76	4.64401	0	0.0001
    77	4.64401	0	0.0001
    78	4.64401	0	0.0001
    79	4.64402	0	0.0001
    80	4.64401	0	0.0001
    81	4.64401	0	0.0001
    82	4.64401	0	0.0001
    83	4.64401	0	0.0001
    84	4.64401	0	0.0001
    85	4.64401	0	0.0001
    86	4.64401	0	0.0001
    87	4.64401	0	0.0001
    88	4.64401	0	0.0001
    89	4.64401	0	0.0001
    90	4.64401	0	0.0001
    91	4.64405	0	0.0001
    92	4.64401	0	0.0001
    93	4.64401	0	0.0001
    94	4.64401	0	0.0001
    95	4.64401	0	0.0001
    96	4.64401	0	0.0001
    97	4.64401	0	0.0001
    98	4.64401	0	0.0001
    99	4.64401	0	0.0001
   100	4.64401	0	0.0001
   101	4.64401	0	0.0001

Measurement: tr1
  step	tr1	FROM	TO
     1	7.66013e-007	2.02475e-005	2.10135e-005
     2	7.67373e-007	2.02477e-005	2.10151e-005
     3	7.69996e-007	2.02465e-005	2.10165e-005
     4	7.74925e-007	2.02427e-005	2.10176e-005
     5	7.6952e-007	2.02494e-005	2.10189e-005
     6	7.71228e-007	2.02493e-005	2.10206e-005
     7	7.72914e-007	2.02493e-005	2.10222e-005
     8	7.7503e-007	2.02492e-005	2.10243e-005
     9	7.76679e-007	2.02492e-005	2.10259e-005
    10	7.78312e-007	2.02491e-005	2.10274e-005
    11	7.7993e-007	2.02491e-005	2.1029e-005
    12	7.81537e-007	2.0249e-005	2.10305e-005
    13	7.83131e-007	2.02489e-005	2.10321e-005
    14	7.84716e-007	2.02489e-005	2.10336e-005
    15	7.86292e-007	2.02488e-005	2.10351e-005
    16	7.87701e-007	2.02487e-005	2.10364e-005
    17	7.89216e-007	2.02486e-005	2.10378e-005
    18	7.90726e-007	2.02485e-005	2.10392e-005
    19	7.92235e-007	2.02484e-005	2.10406e-005
    20	7.93744e-007	2.02483e-005	2.1042e-005
    21	7.95255e-007	2.02481e-005	2.10434e-005
    22	7.96771e-007	2.0248e-005	2.10448e-005
    23	7.98294e-007	2.02479e-005	2.10462e-005
    24	7.99825e-007	2.02477e-005	2.10475e-005
    25	8.01369e-007	2.02475e-005	2.10489e-005
    26	8.03089e-007	2.02473e-005	2.10504e-005
    27	8.04503e-007	2.02471e-005	2.10516e-005
    28	8.06823e-007	2.02464e-005	2.10532e-005
    29	8.10322e-007	2.02442e-005	2.10545e-005
    30	8.11223e-007	2.02448e-005	2.1056e-005
    31	8.122e-007	2.02454e-005	2.10576e-005
    32	8.1256e-007	2.0246e-005	2.10586e-005
    33	8.13694e-007	2.02465e-005	2.10602e-005
    34	8.1506e-007	2.0247e-005	2.10621e-005
    35	8.16419e-007	2.02475e-005	2.10639e-005
    36	8.18002e-007	2.02479e-005	2.10659e-005
    37	8.19125e-007	2.02483e-005	2.10674e-005
    38	8.20474e-007	2.02487e-005	2.10691e-005
    39	8.21821e-007	2.0249e-005	2.10708e-005
    40	8.23166e-007	2.02493e-005	2.10725e-005
    41	8.2355e-007	2.02496e-005	2.10732e-005
    42	8.24938e-007	2.02499e-005	2.10749e-005
    43	8.25804e-007	2.02502e-005	2.1076e-005
    44	8.27192e-007	2.02505e-005	2.10777e-005
    45	8.28578e-007	2.02507e-005	2.10793e-005
    46	8.29962e-007	2.0251e-005	2.10809e-005
    47	8.31345e-007	2.02512e-005	2.10826e-005
    48	8.32725e-007	2.02514e-005	2.10842e-005
    49	8.34105e-007	2.02517e-005	2.10858e-005
    50	8.35482e-007	2.02519e-005	2.10873e-005
    51	8.36856e-007	2.02521e-005	2.10889e-005
    52	8.38227e-007	2.02523e-005	2.10905e-005
    53	8.39594e-007	2.02525e-005	2.1092e-005
    54	8.40945e-007	2.02526e-005	2.10936e-005
    55	8.43096e-007	2.02525e-005	2.10956e-005
    56	8.44459e-007	2.02527e-005	2.10972e-005
    57	8.45831e-007	2.02529e-005	2.10987e-005
    58	8.47181e-007	2.02531e-005	2.11002e-005
    59	8.48538e-007	2.02532e-005	2.11018e-005
    60	8.50066e-007	2.02534e-005	2.11035e-005
    61	8.51496e-007	2.02536e-005	2.11051e-005
    62	8.53567e-007	2.02539e-005	2.11074e-005
    63	8.55088e-007	2.02541e-005	2.11092e-005
    64	8.56533e-007	2.02543e-005	2.11108e-005
    65	8.62266e-007	2.0251e-005	2.11133e-005
    66	8.65478e-007	2.02493e-005	2.11148e-005
    67	8.63062e-007	2.02531e-005	2.11162e-005
    68	8.66454e-007	2.02517e-005	2.11181e-005
    69	8.65935e-007	2.02534e-005	2.11194e-005
    70	8.73439e-007	2.0248e-005	2.11215e-005
    71	8.64846e-007	2.02565e-005	2.11213e-005
    72	8.6861e-007	2.02555e-005	2.11241e-005
    73	8.71908e-007	2.02539e-005	2.11258e-005
    74	8.73488e-007	2.02539e-005	2.11274e-005
    75	8.7376e-007	2.02553e-005	2.1129e-005
    76	8.74073e-007	2.02564e-005	2.11304e-005
    77	8.79217e-007	2.02532e-005	2.11324e-005
    78	8.82387e-007	2.02504e-005	2.11328e-005
    79	8.81279e-007	2.02542e-005	2.11355e-005
    80	8.79785e-007	2.0257e-005	2.11368e-005
    81	8.87357e-007	2.02509e-005	2.11383e-005
    82	8.89281e-007	2.02504e-005	2.11397e-005
    83	8.91269e-007	2.02499e-005	2.11412e-005
    84	8.93332e-007	2.02493e-005	2.11426e-005
    85	8.95865e-007	2.02486e-005	2.11445e-005
    86	8.98047e-007	2.0248e-005	2.1146e-005
    87	8.95832e-007	2.02504e-005	2.11462e-005
    88	8.9669e-007	2.02513e-005	2.1148e-005
    89	8.98124e-007	2.02523e-005	2.11505e-005
    90	8.9672e-007	2.02561e-005	2.11528e-005
    91	9.00289e-007	2.02543e-005	2.11546e-005
    92	9.03007e-007	2.02526e-005	2.11556e-005
    93	9.05078e-007	2.02511e-005	2.11562e-005
    94	9.09254e-007	2.02486e-005	2.11579e-005
    95	9.09062e-007	2.02499e-005	2.1159e-005
    96	9.09433e-007	2.02511e-005	2.11605e-005
    97	9.1004e-007	2.0252e-005	2.1162e-005
    98	9.10844e-007	2.02528e-005	2.11636e-005
    99	9.11809e-007	2.02535e-005	2.11653e-005
   100	9.12904e-007	2.0254e-005	2.11669e-005
   101	9.14102e-007	2.02545e-005	2.11686e-005

Measurement: tr2
  step	tr2	FROM	TO
     1	1.80141e-007	6.0141e-005	6.03212e-005
     2	1.76115e-007	6.01411e-005	6.03172e-005
     3	1.80582e-007	6.01412e-005	6.03218e-005
     4	1.80569e-007	6.01413e-005	6.03219e-005
     5	1.69511e-007	6.01414e-005	6.03109e-005
     6	1.75048e-007	6.01414e-005	6.03165e-005
     7	1.77944e-007	6.01415e-005	6.03195e-005
     8	1.80965e-007	6.01416e-005	6.03226e-005
     9	1.80333e-007	6.01417e-005	6.0322e-005
    10	1.79606e-007	6.01418e-005	6.03214e-005
    11	1.78781e-007	6.01418e-005	6.03206e-005
    12	1.77856e-007	6.01419e-005	6.03198e-005
    13	1.76829e-007	6.0142e-005	6.03188e-005
    14	1.75698e-007	6.01421e-005	6.03178e-005
    15	1.74463e-007	6.01422e-005	6.03166e-005
    16	1.72994e-007	6.01422e-005	6.03152e-005
    17	1.71547e-007	6.01423e-005	6.03139e-005
    18	1.73328e-007	6.01424e-005	6.03157e-005
    19	1.76909e-007	6.01425e-005	6.03194e-005
    20	1.72958e-007	6.01426e-005	6.03155e-005
    21	1.71942e-007	6.01426e-005	6.03146e-005
    22	1.7317e-007	6.01427e-005	6.03159e-005
    23	1.74415e-007	6.01428e-005	6.03172e-005
    24	1.75675e-007	6.01429e-005	6.03186e-005
    25	1.76945e-007	6.0143e-005	6.03199e-005
    26	1.84778e-007	6.0143e-005	6.03278e-005
    27	1.79372e-007	6.01431e-005	6.03225e-005
    28	1.85162e-007	6.01426e-005	6.03277e-005
    29	1.87176e-007	6.01433e-005	6.03305e-005
    30	1.85668e-007	6.01434e-005	6.0329e-005
    31	1.84423e-007	6.01435e-005	6.03279e-005
    32	1.85555e-007	6.01435e-005	6.03291e-005
    33	1.78606e-007	6.01436e-005	6.03222e-005
    34	1.81841e-007	6.01437e-005	6.03255e-005
    35	1.85888e-007	6.01438e-005	6.03297e-005
    36	1.88861e-007	6.01439e-005	6.03327e-005
    37	1.88904e-007	6.01439e-005	6.03328e-005
    38	1.88381e-007	6.0144e-005	6.03324e-005
    39	1.87813e-007	6.01441e-005	6.03319e-005
    40	1.87202e-007	6.01442e-005	6.03314e-005
    41	1.86584e-007	6.01443e-005	6.03309e-005
    42	1.85888e-007	6.01443e-005	6.03302e-005
    43	1.85127e-007	6.01444e-005	6.03296e-005
    44	1.8435e-007	6.01445e-005	6.03289e-005
    45	1.83532e-007	6.01446e-005	6.03281e-005
    46	1.82676e-007	6.01447e-005	6.03274e-005
    47	1.81782e-007	6.01448e-005	6.03265e-005
    48	1.80853e-007	6.01448e-005	6.03257e-005
    49	1.79887e-007	6.01449e-005	6.03248e-005
    50	1.78888e-007	6.0145e-005	6.03239e-005
    51	1.77856e-007	6.01451e-005	6.03229e-005
    52	1.79371e-007	6.01452e-005	6.03245e-005
    53	1.82079e-007	6.01453e-005	6.03273e-005
    54	1.83578e-007	6.01441e-005	6.03276e-005
    55	1.82069e-007	6.01454e-005	6.03275e-005
    56	1.88667e-007	6.01446e-005	6.03332e-005
    57	1.91517e-007	6.0144e-005	6.03355e-005
    58	1.82764e-007	6.01441e-005	6.03269e-005
    59	1.89677e-007	6.01491e-005	6.03388e-005
    60	1.86844e-007	6.01443e-005	6.03312e-005
    61	1.90678e-007	6.01449e-005	6.03356e-005
    62	1.82522e-007	6.01442e-005	6.03267e-005
    63	1.88115e-007	6.01445e-005	6.03326e-005
    64	1.84012e-007	6.01443e-005	6.03284e-005
    65	1.86891e-007	6.01462e-005	6.03331e-005
    66	1.90909e-007	6.01463e-005	6.03372e-005
    67	1.90344e-007	6.01464e-005	6.03368e-005
    68	1.89894e-007	6.01465e-005	6.03364e-005
    69	1.92274e-007	6.01466e-005	6.03389e-005
    70	1.95828e-007	6.01467e-005	6.03425e-005
    71	1.96134e-007	6.01458e-005	6.0342e-005
    72	1.92725e-007	6.01458e-005	6.03386e-005
    73	1.86739e-007	6.01452e-005	6.0332e-005
    74	1.91984e-007	6.01455e-005	6.03374e-005
    75	1.89209e-007	6.01453e-005	6.03345e-005
    76	1.87049e-007	6.01519e-005	6.0339e-005
    77	1.95846e-007	6.01473e-005	6.03431e-005
    78	1.97885e-007	6.01466e-005	6.03445e-005
    79	1.86977e-007	6.01451e-005	6.03321e-005
    80	1.97614e-007	6.0147e-005	6.03446e-005
    81	1.94803e-007	6.01476e-005	6.03424e-005
    82	1.95278e-007	6.01477e-005	6.0343e-005
    83	1.95747e-007	6.01478e-005	6.03435e-005
    84	1.96209e-007	6.01478e-005	6.03441e-005
    85	1.96665e-007	6.01479e-005	6.03446e-005
    86	1.97124e-007	6.0148e-005	6.03451e-005
    87	1.97554e-007	6.01481e-005	6.03457e-005
    88	2.00573e-007	6.01473e-005	6.03479e-005
    89	1.99113e-007	6.01482e-005	6.03473e-005
    90	1.994e-007	6.01486e-005	6.03479e-005
    91	1.99808e-007	6.01463e-005	6.03461e-005
    92	2.00226e-007	6.01485e-005	6.03487e-005
    93	2.00084e-007	6.01486e-005	6.03487e-005
    94	2.00496e-007	6.01487e-005	6.03492e-005
    95	2.00884e-007	6.01488e-005	6.03497e-005
    96	2.01276e-007	6.01489e-005	6.03501e-005
    97	2.01666e-007	6.01489e-005	6.03506e-005
    98	2.02053e-007	6.0149e-005	6.03511e-005
    99	2.02439e-007	6.01491e-005	6.03516e-005
   100	2.02822e-007	6.01492e-005	6.0352e-005
   101	2.03204e-007	6.01493e-005	6.03525e-005

Measurement: vth
  step	v(n004)	at
     1	8.84522	2.05954e-005
     2	8.8453	2.05959e-005
     3	8.84491	2.05967e-005
     4	8.84521	2.05965e-005
     5	8.84768	2.05951e-005
     6	8.8475	2.05959e-005
     7	8.84733	2.05966e-005
     8	8.84716	2.05973e-005
     9	8.84701	2.0598e-005
    10	8.84687	2.05987e-005
    11	8.84674	2.05993e-005
    12	8.84662	2.06e-005
    13	8.84652	2.06006e-005
    14	8.84642	2.06012e-005
    15	8.84633	2.06018e-005
    16	8.8456	2.06032e-005
    17	8.84554	2.06038e-005
    18	8.84549	2.06043e-005
    19	8.84544	2.06049e-005
    20	8.84541	2.06055e-005
    21	8.84538	2.0606e-005
    22	8.84536	2.06065e-005
    23	8.84535	2.06071e-005
    24	8.84535	2.06076e-005
    25	8.84535	2.06081e-005
    26	8.84536	2.06086e-005
    27	8.84537	2.06091e-005
    28	8.8448	2.06099e-005
    29	8.84565	2.06096e-005
    30	8.84572	2.06101e-005
    31	8.84582	2.06106e-005
    32	8.84554	2.06115e-005
    33	8.84553	2.06121e-005
    34	8.84555	2.06126e-005
    35	8.84557	2.06132e-005
    36	8.8456	2.06137e-005
    37	8.84564	2.06143e-005
    38	8.84569	2.06148e-005
    39	8.84574	2.06153e-005
    40	8.8458	2.06158e-005
    41	8.84624	2.06158e-005
    42	8.8463	2.06163e-005
    43	8.84643	2.06168e-005
    44	8.8465	2.06173e-005
    45	8.84658	2.06178e-005
    46	8.84667	2.06182e-005
    47	8.84677	2.06187e-005
    48	8.84687	2.06191e-005
    49	8.84697	2.06196e-005
    50	8.84709	2.062e-005
    51	8.84721	2.06204e-005
    52	8.84734	2.06208e-005
    53	8.84747	2.06212e-005
    54	8.84762	2.06216e-005
    55	8.84742	2.06224e-005
    56	8.84756	2.06228e-005
    57	8.8477	2.06231e-005
    58	8.84785	2.06235e-005
    59	8.84801	2.06239e-005
    60	8.8481	2.06243e-005
    61	8.84818	2.06248e-005
    62	8.84768	2.06259e-005
    63	8.84773	2.06264e-005
    64	8.84779	2.06269e-005
    65	8.84671	2.06283e-005
    66	8.84669	2.06286e-005
    67	8.84728	2.06289e-005
    68	8.84683	2.06298e-005
    69	8.84745	2.06298e-005
    70	8.8467	2.06305e-005
    71	8.84936	2.06291e-005
    72	8.84794	2.06311e-005
    73	8.84765	2.06317e-005
    74	8.84765	2.06323e-005
    75	8.84785	2.06327e-005
    76	8.84844	2.06328e-005
    77	8.84718	2.06343e-005
    78	8.84741	2.06341e-005
    79	8.84764	2.06349e-005
    80	8.849	2.06343e-005
    81	8.84711	2.06363e-005
    82	8.84714	2.06367e-005
    83	8.84717	2.06371e-005
    84	8.84721	2.06376e-005
    85	8.84713	2.0638e-005
    86	8.84702	2.06387e-005
    87	8.84756	2.06388e-005
    88	8.84819	2.06387e-005
    89	8.84897	2.06386e-005
    90	8.84974	2.06389e-005
    91	8.85042	2.06385e-005
    92	8.84925	2.064e-005
    93	8.84813	2.06414e-005
    94	8.84728	2.06427e-005
    95	8.84754	2.06431e-005
    96	8.84758	2.06437e-005
    97	8.84761	2.06443e-005
    98	8.84764	2.06448e-005
    99	8.84767	2.06454e-005
   100	8.8477	2.06459e-005
   101	8.84775	2.06465e-005


Date: Mon Mar 21 20:41:06 2022
Total elapsed time: 1.133 seconds.

tnom = 27
temp = 27
method = modified trap
totiter = 2229
traniter = 2206
tranpoints = 1093
accept = 1078
rejected = 15
matrix size = 11
fillins = 0
solver = Normal
Matrix Compiler1:      38 opcodes  0.1/[0.1]/0.1
Matrix Compiler2: off  [0.1]/0.1/0.1

