Circuit: * C:\Users\user\Documents\LTspiceXVII\file\Montecarlo\monte_SiC.asc

Direct Newton iteration for .op point succeeded.
.step tol1=0
.step tol1=0.01
.step tol1=0.02
.step tol1=0.03
.step tol1=0.04
.step tol1=0.05
.step tol1=0.06
.step tol1=0.07
.step tol1=0.08
.step tol1=0.09
.step tol1=0.1
.step tol1=0.11
.step tol1=0.12
.step tol1=0.13
.step tol1=0.14
.step tol1=0.15
.step tol1=0.16
.step tol1=0.17
.step tol1=0.18
.step tol1=0.19
.step tol1=0.2
.step tol1=0.21
.step tol1=0.22
.step tol1=0.23
.step tol1=0.24
.step tol1=0.25
.step tol1=0.26
.step tol1=0.27
.step tol1=0.28
.step tol1=0.29
.step tol1=0.3
.step tol1=0.31
.step tol1=0.32
.step tol1=0.33
.step tol1=0.34
.step tol1=0.35
.step tol1=0.36
.step tol1=0.37
.step tol1=0.38
.step tol1=0.39
.step tol1=0.4
.step tol1=0.41
.step tol1=0.42
.step tol1=0.43
.step tol1=0.44
.step tol1=0.45
.step tol1=0.46
.step tol1=0.47
.step tol1=0.48
.step tol1=0.49
.step tol1=0.5
.step tol1=0.51
.step tol1=0.52
.step tol1=0.53
.step tol1=0.54
.step tol1=0.55
.step tol1=0.56
.step tol1=0.57
.step tol1=0.58
.step tol1=0.59
.step tol1=0.6
.step tol1=0.61
.step tol1=0.62
.step tol1=0.63
.step tol1=0.64
.step tol1=0.65
.step tol1=0.66
.step tol1=0.67
.step tol1=0.68
.step tol1=0.69
.step tol1=0.7
.step tol1=0.71
.step tol1=0.72
.step tol1=0.73
.step tol1=0.74
.step tol1=0.75
.step tol1=0.76
.step tol1=0.77
.step tol1=0.78
.step tol1=0.79
.step tol1=0.8
.step tol1=0.81
.step tol1=0.82
.step tol1=0.83
.step tol1=0.84
.step tol1=0.85
.step tol1=0.86
.step tol1=0.87
.step tol1=0.88
.step tol1=0.89
.step tol1=0.9
.step tol1=0.91
.step tol1=0.92
.step tol1=0.93
.step tol1=0.94
.step tol1=0.95
.step tol1=0.96
.step tol1=0.97
.step tol1=0.98
.step tol1=0.99
.step tol1=1


Measurement: imax
  step	MAX(-i(v1))	FROM	TO
     1	4.64401	0	0.0001
     2	4.64401	0	0.0001
     3	4.64401	0	0.0001
     4	4.64401	0	0.0001
     5	4.64403	0	0.0001
     6	4.64401	0	0.0001
     7	4.64403	0	0.0001
     8	4.64401	0	0.0001
     9	4.64401	0	0.0001
    10	4.64404	0	0.0001
    11	4.64401	0	0.0001
    12	4.64401	0	0.0001
    13	4.64401	0	0.0001
    14	4.64405	0	0.0001
    15	4.64403	0	0.0001
    16	4.64401	0	0.0001
    17	4.64401	0	0.0001
    18	4.64401	0	0.0001
    19	4.64401	0	0.0001
    20	4.64401	0	0.0001
    21	4.64401	0	0.0001
    22	4.64401	0	0.0001
    23	4.64401	0	0.0001
    24	4.64401	0	0.0001
    25	4.64401	0	0.0001
    26	4.64401	0	0.0001
    27	4.64401	0	0.0001
    28	4.64401	0	0.0001
    29	4.64401	0	0.0001
    30	4.64401	0	0.0001
    31	4.64402	0	0.0001
    32	4.64404	0	0.0001
    33	4.64405	0	0.0001
    34	4.64401	0	0.0001
    35	4.64401	0	0.0001
    36	4.64401	0	0.0001
    37	4.64405	0	0.0001
    38	4.64401	0	0.0001
    39	4.64405	0	0.0001
    40	4.64405	0	0.0001
    41	4.64405	0	0.0001
    42	4.64405	0	0.0001
    43	4.64405	0	0.0001
    44	4.64405	0	0.0001
    45	4.64405	0	0.0001
    46	4.64405	0	0.0001
    47	4.64405	0	0.0001
    48	4.64403	0	0.0001
    49	4.64405	0	0.0001
    50	4.64405	0	0.0001
    51	4.64401	0	0.0001
    52	4.64401	0	0.0001
    53	4.64401	0	0.0001
    54	4.64401	0	0.0001
    55	4.64401	0	0.0001
    56	4.64401	0	0.0001
    57	4.64401	0	0.0001
    58	4.64401	0	0.0001
    59	4.64404	0	0.0001
    60	4.64401	0	0.0001
    61	4.64401	0	0.0001
    62	4.64405	0	0.0001
    63	4.64405	0	0.0001
    64	4.64405	0	0.0001
    65	4.64405	0	0.0001
    66	4.64401	0	0.0001
    67	4.64401	0	0.0001
    68	4.64401	0	0.0001
    69	4.64401	0	0.0001
    70	4.64401	0	0.0001
    71	4.64401	0	0.0001
    72	4.64403	0	0.0001
    73	4.64401	0	0.0001
    74	4.64401	0	0.0001
    75	4.64401	0	0.0001
    76	4.64406	0	0.0001
    77	4.64406	0	0.0001
    78	4.64406	0	0.0001
    79	4.64406	0	0.0001
    80	4.64406	0	0.0001
    81	4.64406	0	0.0001
    82	4.64406	0	0.0001
    83	4.64406	0	0.0001
    84	4.64406	0	0.0001
    85	4.64406	0	0.0001
    86	4.64406	0	0.0001
    87	4.64406	0	0.0001
    88	4.64406	0	0.0001
    89	4.64406	0	0.0001
    90	4.64406	0	0.0001
    91	4.64406	0	0.0001
    92	4.64406	0	0.0001
    93	4.64406	0	0.0001
    94	4.64406	0	0.0001
    95	4.64406	0	0.0001
    96	4.64406	0	0.0001
    97	4.64406	0	0.0001
    98	4.64406	0	0.0001
    99	4.64406	0	0.0001
   100	4.64406	0	0.0001
   101	4.64406	0	0.0001

Measurement: tr1
  step	tr1	FROM	TO
     1	7.66013e-007	2.02475e-005	2.10135e-005
     2	7.6138e-007	2.02475e-005	2.10089e-005
     3	7.53532e-007	2.02488e-005	2.10024e-005
     4	7.50897e-007	2.02478e-005	2.09987e-005
     5	7.44167e-007	2.02496e-005	2.09937e-005
     6	7.40169e-007	2.025e-005	2.09902e-005
     7	7.44349e-007	2.02436e-005	2.09879e-005
     8	7.40453e-007	2.02437e-005	2.09841e-005
     9	7.37335e-007	2.02415e-005	2.09788e-005
    10	7.25314e-007	2.02488e-005	2.09741e-005
    11	7.24477e-007	2.02485e-005	2.0973e-005
    12	7.24753e-007	2.02435e-005	2.09683e-005
    13	7.16767e-007	2.02494e-005	2.09662e-005
    14	7.13701e-007	2.02487e-005	2.09624e-005
    15	7.11986e-007	2.02469e-005	2.09589e-005
    16	7.117e-007	2.02455e-005	2.09572e-005
    17	7.0865e-007	2.02455e-005	2.09542e-005
    18	7.05672e-007	2.02456e-005	2.09512e-005
    19	7.02764e-007	2.02456e-005	2.09484e-005
    20	6.99924e-007	2.02456e-005	2.09456e-005
    21	6.97151e-007	2.02457e-005	2.09428e-005
    22	6.94441e-007	2.02457e-005	2.09402e-005
    23	6.91794e-007	2.02458e-005	2.09376e-005
    24	6.89209e-007	2.02458e-005	2.0935e-005
    25	6.86682e-007	2.02458e-005	2.09325e-005
    26	6.84214e-007	2.02459e-005	2.09301e-005
    27	6.81802e-007	2.02459e-005	2.09277e-005
    28	6.79445e-007	2.02459e-005	2.09254e-005
    29	6.77142e-007	2.0246e-005	2.09231e-005
    30	6.749e-007	2.0246e-005	2.09209e-005
    31	6.72756e-007	2.0246e-005	2.09188e-005
    32	6.70673e-007	2.02461e-005	2.09167e-005
    33	6.68631e-007	2.02461e-005	2.09147e-005
    34	6.66609e-007	2.02461e-005	2.09127e-005
    35	6.64663e-007	2.02462e-005	2.09108e-005
    36	6.62765e-007	2.02462e-005	2.0909e-005
    37	6.60975e-007	2.02462e-005	2.09072e-005
    38	6.592e-007	2.02462e-005	2.09054e-005
    39	6.57524e-007	2.02463e-005	2.09038e-005
    40	6.55863e-007	2.02463e-005	2.09022e-005
    41	6.54498e-007	2.02463e-005	2.09008e-005
    42	6.53222e-007	2.02463e-005	2.08996e-005
    43	6.51982e-007	2.02464e-005	2.08983e-005
    44	6.50779e-007	2.02464e-005	2.08972e-005
    45	6.49611e-007	2.02464e-005	2.0896e-005
    46	6.48478e-007	2.02464e-005	2.08949e-005
    47	6.47377e-007	2.02464e-005	2.08938e-005
    48	6.463e-007	2.02464e-005	2.08927e-005
    49	6.45268e-007	2.02465e-005	2.08917e-005
    50	6.44263e-007	2.02465e-005	2.08907e-005
    51	6.43266e-007	2.02465e-005	2.08898e-005
    52	6.42316e-007	2.02465e-005	2.08888e-005
    53	6.41394e-007	2.02465e-005	2.08879e-005
    54	6.40499e-007	2.02465e-005	2.0887e-005
    55	6.39661e-007	2.02465e-005	2.08862e-005
    56	6.38816e-007	2.02466e-005	2.08854e-005
    57	6.38028e-007	2.02465e-005	2.08846e-005
    58	6.37279e-007	2.02465e-005	2.08838e-005
    59	6.36567e-007	2.02465e-005	2.0883e-005
    60	6.35844e-007	2.02464e-005	2.08823e-005
    61	6.35156e-007	2.02464e-005	2.08815e-005
    62	6.34506e-007	2.02464e-005	2.08809e-005
    63	6.33856e-007	2.02463e-005	2.08802e-005
    64	6.33225e-007	2.02463e-005	2.08795e-005
    65	6.32611e-007	2.02463e-005	2.08789e-005
    66	6.31998e-007	2.02462e-005	2.08782e-005
    67	6.31419e-007	2.02462e-005	2.08776e-005
    68	6.30856e-007	2.02462e-005	2.0877e-005
    69	6.30308e-007	2.02462e-005	2.08765e-005
    70	6.29776e-007	2.02461e-005	2.08759e-005
    71	6.29259e-007	2.02461e-005	2.08754e-005
    72	6.28766e-007	2.02461e-005	2.08749e-005
    73	6.28269e-007	2.02461e-005	2.08743e-005
    74	6.27795e-007	2.02461e-005	2.08739e-005
    75	6.27332e-007	2.0246e-005	2.08734e-005
    76	6.26904e-007	2.0246e-005	2.08729e-005
    77	6.26468e-007	2.0246e-005	2.08725e-005
    78	6.26044e-007	2.0246e-005	2.0872e-005
    79	6.25632e-007	2.0246e-005	2.08716e-005
    80	6.25232e-007	2.02459e-005	2.08712e-005
    81	6.24843e-007	2.02459e-005	2.08708e-005
    82	6.24465e-007	2.02459e-005	2.08704e-005
    83	6.24097e-007	2.02459e-005	2.087e-005
    84	6.2374e-007	2.02459e-005	2.08696e-005
    85	6.23393e-007	2.02459e-005	2.08693e-005
    86	6.23055e-007	2.02459e-005	2.08689e-005
    87	6.22727e-007	2.02458e-005	2.08686e-005
    88	6.22408e-007	2.02458e-005	2.08682e-005
    89	6.22098e-007	2.02458e-005	2.08679e-005
    90	6.21797e-007	2.02458e-005	2.08676e-005
    91	6.21505e-007	2.02458e-005	2.08673e-005
    92	6.2122e-007	2.02458e-005	2.0867e-005
    93	6.20943e-007	2.02458e-005	2.08667e-005
    94	6.20674e-007	2.02458e-005	2.08664e-005
    95	6.20413e-007	2.02458e-005	2.08662e-005
    96	6.20159e-007	2.02458e-005	2.08659e-005
    97	6.19912e-007	2.02457e-005	2.08657e-005
    98	6.19672e-007	2.02457e-005	2.08654e-005
    99	6.19439e-007	2.02457e-005	2.08652e-005
   100	6.19213e-007	2.02457e-005	2.08649e-005
   101	6.18992e-007	2.02457e-005	2.08647e-005

Measurement: tr2
  step	tr2	FROM	TO
     1	1.80141e-007	6.0141e-005	6.03212e-005
     2	1.6938e-007	6.01408e-005	6.03102e-005
     3	1.67037e-007	6.01414e-005	6.03085e-005
     4	1.70515e-007	6.01418e-005	6.03123e-005
     5	1.73991e-007	6.01403e-005	6.03143e-005
     6	1.7547e-007	6.01415e-005	6.03169e-005
     7	1.69007e-007	6.01406e-005	6.03096e-005
     8	1.66708e-007	6.01408e-005	6.03075e-005
     9	1.7382e-007	6.01396e-005	6.03134e-005
    10	1.7324e-007	6.01394e-005	6.03126e-005
    11	1.69562e-007	6.01411e-005	6.03107e-005
    12	1.7236e-007	6.01391e-005	6.03114e-005
    13	1.75185e-007	6.01386e-005	6.03138e-005
    14	1.71441e-007	6.01388e-005	6.03102e-005
    15	1.71063e-007	6.01386e-005	6.03097e-005
    16	1.634e-007	6.01399e-005	6.03033e-005
    17	1.64776e-007	6.01396e-005	6.03043e-005
    18	1.66604e-007	6.01393e-005	6.03059e-005
    19	1.61226e-007	6.01398e-005	6.0301e-005
    20	1.59706e-007	6.01398e-005	6.02995e-005
    21	1.58262e-007	6.01399e-005	6.02982e-005
    22	1.56975e-007	6.01399e-005	6.02969e-005
    23	1.55908e-007	6.01397e-005	6.02956e-005
    24	1.55107e-007	6.01393e-005	6.02944e-005
    25	1.56093e-007	6.0139e-005	6.02951e-005
    26	1.56954e-007	6.01386e-005	6.02956e-005
    27	1.57675e-007	6.01383e-005	6.0296e-005
    28	1.58248e-007	6.01381e-005	6.02963e-005
    29	1.58699e-007	6.01378e-005	6.02965e-005
    30	1.59128e-007	6.01376e-005	6.02967e-005
    31	1.58928e-007	6.01409e-005	6.02998e-005
    32	1.64573e-007	6.01372e-005	6.03018e-005
    33	1.53952e-007	6.01407e-005	6.02946e-005
    34	1.62265e-007	6.01369e-005	6.02992e-005
    35	1.51453e-007	6.01404e-005	6.02919e-005
    36	1.59242e-007	6.01401e-005	6.02993e-005
    37	1.60077e-007	6.01386e-005	6.02987e-005
    38	1.59137e-007	6.01379e-005	6.0297e-005
    39	1.62468e-007	6.01376e-005	6.03001e-005
    40	1.63721e-007	6.01373e-005	6.0301e-005
    41	1.60723e-007	6.01369e-005	6.02977e-005
    42	1.59254e-007	6.01384e-005	6.02976e-005
    43	1.6028e-007	6.01369e-005	6.02972e-005
    44	1.6231e-007	6.01372e-005	6.02995e-005
    45	1.60432e-007	6.01375e-005	6.02979e-005
    46	1.58353e-007	6.01377e-005	6.02961e-005
    47	1.56351e-007	6.0138e-005	6.02943e-005
    48	1.50742e-007	6.01391e-005	6.02898e-005
    49	1.54777e-007	6.01378e-005	6.02925e-005
    50	1.55534e-007	6.01392e-005	6.02947e-005
    51	1.58756e-007	6.01363e-005	6.0295e-005
    52	1.5831e-007	6.01365e-005	6.02948e-005
    53	1.52642e-007	6.01375e-005	6.02902e-005
    54	1.55361e-007	6.01385e-005	6.02939e-005
    55	1.59334e-007	6.01374e-005	6.02967e-005
    56	1.52851e-007	6.01374e-005	6.02902e-005
    57	1.60077e-007	6.01367e-005	6.02968e-005
    58	1.57743e-007	6.01371e-005	6.02948e-005
    59	1.53437e-007	6.01385e-005	6.0292e-005
    60	1.56332e-007	6.01367e-005	6.0293e-005
    61	1.57136e-007	6.0137e-005	6.02941e-005
    62	1.57902e-007	6.0137e-005	6.02949e-005
    63	1.56411e-007	6.0138e-005	6.02944e-005
    64	1.58031e-007	6.01369e-005	6.0295e-005
    65	1.56731e-007	6.01364e-005	6.02931e-005
    66	1.48491e-007	6.01381e-005	6.02866e-005
    67	1.53615e-007	6.01369e-005	6.02906e-005
    68	1.52288e-007	6.01367e-005	6.0289e-005
    69	1.54126e-007	6.01367e-005	6.02908e-005
    70	1.57805e-007	6.01365e-005	6.02943e-005
    71	1.55848e-007	6.01377e-005	6.02936e-005
    72	1.5309e-007	6.01366e-005	6.02896e-005
    73	1.53797e-007	6.0136e-005	6.02898e-005
    74	1.55717e-007	6.01367e-005	6.02924e-005
    75	1.55678e-007	6.01367e-005	6.02924e-005
    76	1.52698e-007	6.01344e-005	6.02871e-005
    77	1.52435e-007	6.01344e-005	6.02868e-005
    78	1.52174e-007	6.01343e-005	6.02865e-005
    79	1.50165e-007	6.01343e-005	6.02845e-005
    80	1.50541e-007	6.01343e-005	6.02848e-005
    81	1.50908e-007	6.01343e-005	6.02852e-005
    82	1.51266e-007	6.01342e-005	6.02855e-005
    83	1.51615e-007	6.01342e-005	6.02858e-005
    84	1.51955e-007	6.01342e-005	6.02862e-005
    85	1.52286e-007	6.01342e-005	6.02865e-005
    86	1.52606e-007	6.01342e-005	6.02868e-005
    87	1.52917e-007	6.01341e-005	6.0287e-005
    88	1.53218e-007	6.01341e-005	6.02873e-005
    89	1.53509e-007	6.01341e-005	6.02876e-005
    90	1.53789e-007	6.01341e-005	6.02879e-005
    91	1.54059e-007	6.01341e-005	6.02881e-005
    92	1.5432e-007	6.0134e-005	6.02884e-005
    93	1.5457e-007	6.0134e-005	6.02886e-005
    94	1.54809e-007	6.0134e-005	6.02888e-005
    95	1.55039e-007	6.0134e-005	6.0289e-005
    96	1.55259e-007	6.0134e-005	6.02892e-005
    97	1.55468e-007	6.01339e-005	6.02894e-005
    98	1.55668e-007	6.01339e-005	6.02896e-005
    99	1.55858e-007	6.01339e-005	6.02898e-005
   100	1.55991e-007	6.01339e-005	6.02899e-005
   101	1.56162e-007	6.01339e-005	6.029e-005

Measurement: vth
  step	v(n004)	at
     1	8.84522	2.05954e-005
     2	8.84535	2.05936e-005
     3	8.84322	2.05927e-005
     4	8.84294	2.05914e-005
     5	8.84684	2.05868e-005
     6	8.8429	2.0588e-005
     7	8.84324	2.0587e-005
     8	8.843	2.05857e-005
     9	8.84508	2.05826e-005
    10	8.84532	2.05807e-005
    11	8.84186	2.05819e-005
    12	8.84448	2.05795e-005
    13	8.84233	2.05789e-005
    14	8.84374	2.05768e-005
    15	8.84425	2.05752e-005
    16	8.84127	2.05767e-005
    17	8.84115	2.05757e-005
    18	8.84103	2.05747e-005
    19	8.84091	2.05738e-005
    20	8.84079	2.05729e-005
    21	8.84068	2.0572e-005
    22	8.84057	2.05711e-005
    23	8.84047	2.05703e-005
    24	8.84036	2.05695e-005
    25	8.84027	2.05687e-005
    26	8.84017	2.0568e-005
    27	8.84008	2.05673e-005
    28	8.83999	2.05666e-005
    29	8.8399	2.05659e-005
    30	8.83982	2.05652e-005
    31	8.83973	2.05646e-005
    32	8.83963	2.0564e-005
    33	8.83954	2.05634e-005
    34	8.83946	2.05628e-005
    35	8.83937	2.05623e-005
    36	8.83929	2.05617e-005
    37	8.83922	2.05612e-005
    38	8.83917	2.05607e-005
    39	8.83911	2.05602e-005
    40	8.83906	2.05597e-005
    41	8.839	2.05593e-005
    42	8.83895	2.05588e-005
    43	8.8389	2.05584e-005
    44	8.83885	2.0558e-005
    45	8.83881	2.05576e-005
    46	8.83876	2.05572e-005
    47	8.83871	2.05568e-005
    48	8.83867	2.05565e-005
    49	8.83863	2.05561e-005
    50	8.83858	2.05558e-005
    51	8.83854	2.05554e-005
    52	8.8385	2.05551e-005
    53	8.83846	2.05548e-005
    54	8.83842	2.05545e-005
    55	8.83839	2.05542e-005
    56	8.83835	2.05539e-005
    57	8.83831	2.05537e-005
    58	8.83828	2.05534e-005
    59	8.83825	2.05532e-005
    60	8.83821	2.05529e-005
    61	8.83818	2.05527e-005
    62	8.83815	2.05524e-005
    63	8.83812	2.05522e-005
    64	8.83809	2.0552e-005
    65	8.83806	2.05518e-005
    66	8.83803	2.05516e-005
    67	8.83801	2.05514e-005
    68	8.83798	2.05512e-005
    69	8.83796	2.0551e-005
    70	8.83793	2.05508e-005
    71	8.83791	2.05507e-005
    72	8.83788	2.05505e-005
    73	8.83786	2.05503e-005
    74	8.83784	2.05502e-005
    75	8.83781	2.055e-005
    76	8.83779	2.05499e-005
    77	8.83777	2.05498e-005
    78	8.83775	2.05496e-005
    79	8.83773	2.05495e-005
    80	8.83771	2.05494e-005
    81	8.8377	2.05492e-005
    82	8.83768	2.05491e-005
    83	8.83766	2.0549e-005
    84	8.83764	2.05489e-005
    85	8.83763	2.05488e-005
    86	8.83761	2.05487e-005
    87	8.83759	2.05486e-005
    88	8.83758	2.05485e-005
    89	8.83757	2.05484e-005
    90	8.83755	2.05483e-005
    91	8.83754	2.05482e-005
    92	8.83752	2.05481e-005
    93	8.83751	2.0548e-005
    94	8.8375	2.05479e-005
    95	8.83749	2.05479e-005
    96	8.83747	2.05478e-005
    97	8.83746	2.05477e-005
    98	8.83745	2.05476e-005
    99	8.83744	2.05476e-005
   100	8.83743	2.05475e-005
   101	8.83742	2.05474e-005


Date: Mon Mar 21 20:41:16 2022
Total elapsed time: 1.242 seconds.

tnom = 27
temp = 27
method = modified trap
totiter = 2221
traniter = 2198
tranpoints = 1091
accept = 1077
rejected = 14
matrix size = 11
fillins = 0
solver = Normal
Matrix Compiler1: 674 bytes object code size  0.1/0.1/[0.1]
Matrix Compiler2: off  [0.1]/0.1/0.1

