Circuit: * C:\Users\user\Documents\LTspiceXVII\file\Montecarlo\monte_SiC.asc

Direct Newton iteration for .op point succeeded.
.step tol1=0
.step tol1=0.01
.step tol1=0.02
.step tol1=0.03
.step tol1=0.04
.step tol1=0.05
.step tol1=0.06
.step tol1=0.07
.step tol1=0.08
.step tol1=0.09
.step tol1=0.1
.step tol1=0.11
.step tol1=0.12
.step tol1=0.13
.step tol1=0.14
.step tol1=0.15
.step tol1=0.16
.step tol1=0.17
.step tol1=0.18
.step tol1=0.19
.step tol1=0.2
.step tol1=0.21
.step tol1=0.22
.step tol1=0.23
.step tol1=0.24
.step tol1=0.25
.step tol1=0.26
.step tol1=0.27
.step tol1=0.28
.step tol1=0.29
.step tol1=0.3
.step tol1=0.31
.step tol1=0.32
.step tol1=0.33
.step tol1=0.34
.step tol1=0.35
.step tol1=0.36
.step tol1=0.37
.step tol1=0.38
.step tol1=0.39
.step tol1=0.4
.step tol1=0.41
.step tol1=0.42
.step tol1=0.43
.step tol1=0.44
.step tol1=0.45
.step tol1=0.46
.step tol1=0.47
.step tol1=0.48
.step tol1=0.49
.step tol1=0.5
.step tol1=0.51
.step tol1=0.52
.step tol1=0.53
.step tol1=0.54
.step tol1=0.55
.step tol1=0.56
.step tol1=0.57
.step tol1=0.58
.step tol1=0.59
.step tol1=0.6
.step tol1=0.61
.step tol1=0.62
.step tol1=0.63
.step tol1=0.64
.step tol1=0.65
.step tol1=0.66
.step tol1=0.67
.step tol1=0.68
.step tol1=0.69
.step tol1=0.7
.step tol1=0.71
.step tol1=0.72
.step tol1=0.73
.step tol1=0.74
.step tol1=0.75
.step tol1=0.76
.step tol1=0.77
.step tol1=0.78
.step tol1=0.79
.step tol1=0.8
.step tol1=0.81
.step tol1=0.82
.step tol1=0.83
.step tol1=0.84
.step tol1=0.85
.step tol1=0.86
.step tol1=0.87
.step tol1=0.88
.step tol1=0.89
.step tol1=0.9
.step tol1=0.91
.step tol1=0.92
.step tol1=0.93
.step tol1=0.94
.step tol1=0.95
.step tol1=0.96
.step tol1=0.97
.step tol1=0.98
.step tol1=0.99
.step tol1=1


Measurement: imax
  step	MAX(-i(v1))	FROM	TO
     1	4.64401	0	0.0001
     2	4.68919	0	0.0001
     3	4.73435	0	0.0001
     4	4.77949	0	0.0001
     5	4.8246	0	0.0001
     6	4.86969	0	0.0001
     7	4.91475	0	0.0001
     8	4.95979	0	0.0001
     9	5.0048	0	0.0001
    10	5.04979	0	0.0001
    11	5.09476	0	0.0001
    12	5.1397	0	0.0001
    13	5.18462	0	0.0001
    14	5.22951	0	0.0001
    15	5.27438	0	0.0001
    16	5.31922	0	0.0001
    17	5.36404	0	0.0001
    18	5.40884	0	0.0001
    19	5.45361	0	0.0001
    20	5.49835	0	0.0001
    21	5.54308	0	0.0001
    22	5.58778	0	0.0001
    23	5.63246	0	0.0001
    24	5.6771	0	0.0001
    25	5.72172	0	0.0001
    26	5.76633	0	0.0001
    27	5.8109	0	0.0001
    28	5.85545	0	0.0001
    29	5.9	0	0.0001
    30	5.9445	0	0.0001
    31	5.98899	0	0.0001
    32	6.03344	0	0.0001
    33	6.07787	0	0.0001
    34	6.12228	0	0.0001
    35	6.16667	0	0.0001
    36	6.21103	0	0.0001
    37	6.25535	0	0.0001
    38	6.29966	0	0.0001
    39	6.34396	0	0.0001
    40	6.38821	0	0.0001
    41	6.43245	0	0.0001
    42	6.47667	0	0.0001
    43	6.52086	0	0.0001
    44	6.56502	0	0.0001
    45	6.60917	0	0.0001
    46	6.65329	0	0.0001
    47	6.69739	0	0.0001
    48	6.74146	0	0.0001
    49	6.78551	0	0.0001
    50	6.82953	0	0.0001
    51	6.87353	0	0.0001
    52	6.91751	0	0.0001
    53	6.96146	0	0.0001
    54	7.00539	0	0.0001
    55	7.0493	0	0.0001
    56	7.09318	0	0.0001
    57	7.13704	0	0.0001
    58	7.18087	0	0.0001
    59	7.22468	0	0.0001
    60	7.26847	0	0.0001
    61	7.31223	0	0.0001
    62	7.35597	0	0.0001
    63	7.39968	0	0.0001
    64	7.44338	0	0.0001
    65	7.48704	0	0.0001
    66	7.53069	0	0.0001
    67	7.57432	0	0.0001
    68	7.61792	0	0.0001
    69	7.66148	0	0.0001
    70	7.70502	0	0.0001
    71	7.74854	0	0.0001
    72	7.79204	0	0.0001
    73	7.83549	0	0.0001
    74	7.87888	0	0.0001
    75	7.92225	0	0.0001
    76	7.96555	0	0.0001
    77	8.00878	0	0.0001
    78	8.05193	0	0.0001
    79	8.09499	0	0.0001
    80	8.13796	0	0.0001
    81	8.18081	0	0.0001
    82	8.22353	0	0.0001
    83	8.26612	0	0.0001
    84	8.30857	0	0.0001
    85	8.35085	0	0.0001
    86	8.39297	0	0.0001
    87	8.43492	0	0.0001
    88	8.47664	0	0.0001
    89	8.5182	0	0.0001
    90	8.55955	0	0.0001
    91	8.60069	0	0.0001
    92	8.64162	0	0.0001
    93	8.68233	0	0.0001
    94	8.7228	0	0.0001
    95	8.76306	0	0.0001
    96	8.80306	0	0.0001
    97	8.84278	0	0.0001
    98	8.88233	0	0.0001
    99	8.92159	0	0.0001
   100	8.96059	0	0.0001
   101	8.99934	0	0.0001

Measurement: tr1
  step	tr1	FROM	TO
     1	7.66013e-007	2.02475e-005	2.10135e-005
     2	7.68746e-007	2.02476e-005	2.10163e-005
     3	7.71474e-007	2.02477e-005	2.10191e-005
     4	7.74196e-007	2.02478e-005	2.1022e-005
     5	7.76915e-007	2.02478e-005	2.10248e-005
     6	7.79633e-007	2.02479e-005	2.10276e-005
     7	7.82469e-007	2.0248e-005	2.10305e-005
     8	7.85181e-007	2.02481e-005	2.10333e-005
     9	7.87895e-007	2.02482e-005	2.10361e-005
    10	7.90614e-007	2.02483e-005	2.10389e-005
    11	7.93337e-007	2.02484e-005	2.10417e-005
    12	7.96066e-007	2.02484e-005	2.10445e-005
    13	7.99671e-007	2.02485e-005	2.10482e-005
    14	8.03667e-007	2.02486e-005	2.10523e-005
    15	8.0766e-007	2.02487e-005	2.10564e-005
    16	8.11652e-007	2.02488e-005	2.10604e-005
    17	8.16251e-007	2.02489e-005	2.10651e-005
    18	8.20254e-007	2.02489e-005	2.10692e-005
    19	8.24263e-007	2.0249e-005	2.10733e-005
    20	8.28278e-007	2.02491e-005	2.10774e-005
    21	8.32305e-007	2.02492e-005	2.10815e-005
    22	8.36343e-007	2.02493e-005	2.10856e-005
    23	8.40391e-007	2.02494e-005	2.10897e-005
    24	8.44445e-007	2.02494e-005	2.10939e-005
    25	8.48523e-007	2.02495e-005	2.1098e-005
    26	8.52618e-007	2.02496e-005	2.11022e-005
    27	8.56734e-007	2.02497e-005	2.11064e-005
    28	8.6087e-007	2.02497e-005	2.11106e-005
    29	8.6504e-007	2.02498e-005	2.11149e-005
    30	8.69226e-007	2.02499e-005	2.11191e-005
    31	8.73439e-007	2.025e-005	2.11234e-005
    32	8.78378e-007	2.02501e-005	2.11284e-005
    33	8.84117e-007	2.02501e-005	2.11343e-005
    34	8.89882e-007	2.02502e-005	2.11401e-005
    35	8.95677e-007	2.02503e-005	2.1146e-005
    36	9.01503e-007	2.02504e-005	2.11519e-005
    37	9.07353e-007	2.02504e-005	2.11578e-005
    38	9.13253e-007	2.02505e-005	2.11638e-005
    39	9.19204e-007	2.02506e-005	2.11698e-005
    40	9.25952e-007	2.02507e-005	2.11766e-005
    41	9.3199e-007	2.02507e-005	2.11827e-005
    42	9.38078e-007	2.02508e-005	2.11889e-005
    43	9.4422e-007	2.02509e-005	2.11951e-005
    44	9.50417e-007	2.0251e-005	2.12014e-005
    45	9.56674e-007	2.0251e-005	2.12077e-005
    46	9.63347e-007	2.02511e-005	2.12145e-005
    47	9.71536e-007	2.02512e-005	2.12227e-005
    48	9.80229e-007	2.02513e-005	2.12315e-005
    49	9.88582e-007	2.02513e-005	2.12399e-005
    50	9.97017e-007	2.02514e-005	2.12484e-005
    51	1.00481e-006	2.02515e-005	2.12563e-005
    52	1.01343e-006	2.02515e-005	2.1265e-005
    53	1.02215e-006	2.02516e-005	2.12738e-005
    54	1.03097e-006	2.02517e-005	2.12827e-005
    55	1.0399e-006	2.02518e-005	2.12917e-005
    56	1.04976e-006	2.02518e-005	2.13016e-005
    57	1.06143e-006	2.02519e-005	2.13133e-005
    58	1.07293e-006	2.0252e-005	2.13249e-005
    59	1.08458e-006	2.0252e-005	2.13366e-005
    60	1.09637e-006	2.02521e-005	2.13485e-005
    61	1.10834e-006	2.02522e-005	2.13605e-005
    62	1.12047e-006	2.02522e-005	2.13727e-005
    63	1.13278e-006	2.02523e-005	2.13851e-005
    64	1.14544e-006	2.02524e-005	2.13978e-005
    65	1.16086e-006	2.02525e-005	2.14133e-005
    66	1.17651e-006	2.02525e-005	2.1429e-005
    67	1.19243e-006	2.02526e-005	2.1445e-005
    68	1.20861e-006	2.02527e-005	2.14613e-005
    69	1.22505e-006	2.02527e-005	2.14778e-005
    70	1.24241e-006	2.02528e-005	2.14952e-005
    71	1.26275e-006	2.02529e-005	2.15156e-005
    72	1.28347e-006	2.02529e-005	2.15364e-005
    73	1.30457e-006	2.0253e-005	2.15576e-005
    74	1.32604e-006	2.02531e-005	2.15791e-005
    75	1.35052e-006	2.02531e-005	2.16036e-005
    76	1.37679e-006	2.02532e-005	2.163e-005
    77	1.40359e-006	2.02533e-005	2.16568e-005
    78	1.43219e-006	2.02533e-005	2.16855e-005
    79	1.4646e-006	2.02534e-005	2.1718e-005
    80	1.49768e-006	2.02534e-005	2.17511e-005
    81	1.53243e-006	2.02535e-005	2.17859e-005
    82	1.57223e-006	2.02536e-005	2.18258e-005
    83	1.61294e-006	2.02536e-005	2.18666e-005
    84	1.65933e-006	2.02537e-005	2.1913e-005
    85	1.70812e-006	2.02537e-005	2.19619e-005
    86	1.76358e-006	2.02538e-005	2.20174e-005
    87	1.82281e-006	2.02539e-005	2.20767e-005
    88	1.89024e-006	2.02539e-005	2.21441e-005
    89	1.96465e-006	2.0254e-005	2.22186e-005
    90	2.04573e-006	2.0254e-005	2.22997e-005
    91	2.13348e-006	2.02541e-005	2.23875e-005
    92	2.22772e-006	2.02541e-005	2.24818e-005
    93	2.32818e-006	2.02541e-005	2.25823e-005
    94	2.43437e-006	2.02542e-005	2.26886e-005
    95	2.54686e-006	2.02542e-005	2.28011e-005
    96	2.66476e-006	2.02543e-005	2.2919e-005
    97	2.78359e-006	2.02543e-005	2.30379e-005
    98	2.90973e-006	2.02545e-005	2.31642e-005
    99	3.03865e-006	2.02546e-005	2.32932e-005
   100	3.17372e-006	2.02546e-005	2.34283e-005
   101	3.30828e-006	2.02546e-005	2.35629e-005

Measurement: tr2
  step	tr2	FROM	TO
     1	1.80141e-007	6.0141e-005	6.03212e-005
     2	1.76568e-007	6.01412e-005	6.03178e-005
     3	1.74825e-007	6.01414e-005	6.03162e-005
     4	1.72947e-007	6.01416e-005	6.03145e-005
     5	1.7095e-007	6.01418e-005	6.03127e-005
     6	1.68846e-007	6.01419e-005	6.03108e-005
     7	1.73804e-007	6.01422e-005	6.0316e-005
     8	1.7188e-007	6.01425e-005	6.03143e-005
     9	1.69749e-007	6.01427e-005	6.03125e-005
    10	1.7248e-007	6.0143e-005	6.03155e-005
    11	1.7677e-007	6.01436e-005	6.03204e-005
    12	1.76879e-007	6.01439e-005	6.03208e-005
    13	1.76974e-007	6.01442e-005	6.03211e-005
    14	1.76979e-007	6.01444e-005	6.03214e-005
    15	1.77047e-007	6.01447e-005	6.03218e-005
    16	1.77553e-007	6.0145e-005	6.03226e-005
    17	1.77537e-007	6.01453e-005	6.03229e-005
    18	1.77499e-007	6.01457e-005	6.03232e-005
    19	1.77439e-007	6.0146e-005	6.03234e-005
    20	1.77357e-007	6.01463e-005	6.03237e-005
    21	1.72889e-007	6.01515e-005	6.03244e-005
    22	1.73014e-007	6.01458e-005	6.03188e-005
    23	1.72629e-007	6.01521e-005	6.03248e-005
    24	1.73233e-007	6.01453e-005	6.03186e-005
    25	1.69245e-007	6.01527e-005	6.0322e-005
    26	1.70432e-007	6.01529e-005	6.03234e-005
    27	1.74148e-007	6.01478e-005	6.0322e-005
    28	1.75149e-007	6.01465e-005	6.03216e-005
    29	1.71607e-007	6.01491e-005	6.03207e-005
    30	1.72386e-007	6.01528e-005	6.03252e-005
    31	1.671e-007	6.01548e-005	6.03219e-005
    32	1.72097e-007	6.01546e-005	6.03267e-005
    33	1.72678e-007	6.01554e-005	6.03281e-005
    34	1.71647e-007	6.01561e-005	6.03277e-005
    35	1.70472e-007	6.01566e-005	6.03271e-005
    36	1.77151e-007	6.01509e-005	6.03281e-005
    37	1.70797e-007	6.01568e-005	6.03276e-005
    38	1.68628e-007	6.01571e-005	6.03257e-005
    39	1.72441e-007	6.01586e-005	6.03311e-005
    40	1.70213e-007	6.01589e-005	6.03291e-005
    41	1.72411e-007	6.01595e-005	6.03319e-005
    42	1.73195e-007	6.01601e-005	6.03333e-005
    43	1.71637e-007	6.01605e-005	6.03321e-005
    44	1.74639e-007	6.01609e-005	6.03355e-005
    45	1.75138e-007	6.01614e-005	6.03366e-005
    46	1.73291e-007	6.01621e-005	6.03354e-005
    47	1.71214e-007	6.01629e-005	6.03341e-005
    48	1.7323e-007	6.01639e-005	6.03371e-005
    49	1.7285e-007	6.0165e-005	6.03378e-005
    50	1.76256e-007	6.01659e-005	6.03421e-005
    51	1.76251e-007	6.01667e-005	6.0343e-005
    52	1.709e-007	6.01677e-005	6.03386e-005
    53	1.74416e-007	6.01687e-005	6.03431e-005
    54	1.77428e-007	6.017e-005	6.03474e-005
    55	1.77036e-007	6.01712e-005	6.03482e-005
    56	1.78209e-007	6.01723e-005	6.03505e-005
    57	1.72226e-007	6.01736e-005	6.03459e-005
    58	1.73017e-007	6.01752e-005	6.03483e-005
    59	1.76754e-007	6.01755e-005	6.03522e-005
    60	1.79563e-007	6.01769e-005	6.03565e-005
    61	1.82067e-007	6.01777e-005	6.03598e-005
    62	1.78335e-007	6.01824e-005	6.03607e-005
    63	1.79735e-007	6.0183e-005	6.03628e-005
    64	1.80758e-007	6.01866e-005	6.03674e-005
    65	1.81824e-007	6.01893e-005	6.03711e-005
    66	1.83537e-007	6.01906e-005	6.03741e-005
    67	1.83898e-007	6.01945e-005	6.03784e-005
    68	1.81832e-007	6.01985e-005	6.03804e-005
    69	1.8062e-007	6.02026e-005	6.03832e-005
    70	1.86354e-007	6.02064e-005	6.03927e-005
    71	1.85174e-007	6.02106e-005	6.03958e-005
    72	1.85198e-007	6.02151e-005	6.04003e-005
    73	1.86223e-007	6.022e-005	6.04062e-005
    74	1.90753e-007	6.02248e-005	6.04156e-005
    75	1.89703e-007	6.0231e-005	6.04207e-005
    76	1.91942e-007	6.02375e-005	6.04295e-005
    77	1.91212e-007	6.02444e-005	6.04356e-005
    78	1.92629e-007	6.02516e-005	6.04442e-005
    79	1.94032e-007	6.02594e-005	6.04534e-005
    80	2.02163e-007	6.02669e-005	6.0469e-005
    81	1.99697e-007	6.02754e-005	6.0475e-005
    82	2.03653e-007	6.02836e-005	6.04873e-005
    83	2.01423e-007	6.02925e-005	6.0494e-005
    84	2.07761e-007	6.03016e-005	6.05094e-005
    85	2.08062e-007	6.03106e-005	6.05187e-005
    86	2.13248e-007	6.03201e-005	6.05333e-005
    87	2.12675e-007	6.03293e-005	6.05419e-005
    88	2.20815e-007	6.03388e-005	6.05596e-005
    89	2.23604e-007	6.0348e-005	6.05716e-005
    90	2.2442e-007	6.03567e-005	6.05811e-005
    91	2.31662e-007	6.03665e-005	6.05981e-005
    92	2.34969e-007	6.03743e-005	6.06093e-005
    93	2.4068e-007	6.03838e-005	6.06245e-005
    94	2.45304e-007	6.03942e-005	6.06395e-005
    95	2.51794e-007	6.04023e-005	6.06541e-005
    96	2.57153e-007	6.04113e-005	6.06685e-005
    97	2.67099e-007	6.04207e-005	6.06878e-005
    98	2.7515e-007	6.04275e-005	6.07026e-005
    99	2.80496e-007	6.04382e-005	6.07187e-005
   100	2.83416e-007	6.04483e-005	6.07317e-005
   101	2.94036e-007	6.04562e-005	6.07502e-005

Measurement: vth
  step	v(n004)	at
     1	8.84522	2.05954e-005
     2	8.82247	2.05901e-005
     3	8.80011	2.0585e-005
     4	8.77812	2.05799e-005
     5	8.7565	2.05751e-005
     6	8.73523	2.05703e-005
     7	8.71409	2.05657e-005
     8	8.69327	2.05613e-005
     9	8.67157	2.05577e-005
    10	8.6502	2.05542e-005
    11	8.62916	2.05507e-005
    12	8.60844	2.05473e-005
    13	8.58803	2.0544e-005
    14	8.56792	2.05408e-005
    15	8.54811	2.05376e-005
    16	8.52859	2.05345e-005
    17	8.50935	2.05315e-005
    18	8.49039	2.05285e-005
    19	8.47169	2.05256e-005
    20	8.45326	2.05227e-005
    21	8.43508	2.05199e-005
    22	8.41716	2.05172e-005
    23	8.39948	2.05145e-005
    24	8.38204	2.05119e-005
    25	8.36484	2.05093e-005
    26	8.34786	2.05068e-005
    27	8.33111	2.05043e-005
    28	8.31458	2.05018e-005
    29	8.29827	2.04994e-005
    30	8.28216	2.04971e-005
    31	8.26626	2.04948e-005
    32	8.25056	2.04925e-005
    33	8.23506	2.04903e-005
    34	8.21975	2.04881e-005
    35	8.20463	2.04859e-005
    36	8.18969	2.04838e-005
    37	8.17494	2.04818e-005
    38	8.16036	2.04797e-005
    39	8.14596	2.04777e-005
    40	8.13173	2.04757e-005
    41	8.11767	2.04738e-005
    42	8.10377	2.04719e-005
    43	8.09003	2.047e-005
    44	8.07645	2.04682e-005
    45	8.06303	2.04663e-005
    46	8.04976	2.04646e-005
    47	8.03663	2.04628e-005
    48	8.02365	2.04611e-005
    49	8.01082	2.04594e-005
    50	7.99813	2.04577e-005
    51	7.98601	2.0456e-005
    52	7.97358	2.04544e-005
    53	7.9613	2.04528e-005
    54	7.94914	2.04512e-005
    55	7.93712	2.04496e-005
    56	7.92522	2.04481e-005
    57	7.91303	2.04466e-005
    58	7.90138	2.04451e-005
    59	7.88985	2.04436e-005
    60	7.87844	2.04422e-005
    61	7.86714	2.04407e-005
    62	7.85596	2.04393e-005
    63	7.84489	2.04379e-005
    64	7.83393	2.04366e-005
    65	7.82308	2.04352e-005
    66	7.81233	2.04339e-005
    67	7.80169	2.04326e-005
    68	7.79116	2.04313e-005
    69	7.78072	2.043e-005
    70	7.77039	2.04287e-005
    71	7.76015	2.04275e-005
    72	7.75001	2.04262e-005
    73	7.73996	2.0425e-005
    74	7.73001	2.04238e-005
    75	7.72015	2.04226e-005
    76	7.71038	2.04214e-005
    77	7.70071	2.04203e-005
    78	7.69111	2.04191e-005
    79	7.68161	2.0418e-005
    80	7.67219	2.04169e-005
    81	7.66286	2.04158e-005
    82	7.65361	2.04147e-005
    83	7.64443	2.04136e-005
    84	7.63535	2.04125e-005
    85	7.62633	2.04115e-005
    86	7.6174	2.04104e-005
    87	7.60855	2.04094e-005
    88	7.59977	2.04084e-005
    89	7.59069	2.04074e-005
    90	7.5814	2.04065e-005
    91	7.57219	2.04056e-005
    92	7.56306	2.04048e-005
    93	7.554	2.04039e-005
    94	7.54503	2.0403e-005
    95	7.53613	2.04022e-005
    96	7.52733	2.04013e-005
    97	7.51862	2.04005e-005
    98	7.51263	2.03995e-005
    99	7.50457	2.03986e-005
   100	7.49657	2.03977e-005
   101	7.48863	2.03969e-005


Date: Mon Mar 21 20:42:50 2022
Total elapsed time: 1.040 seconds.

tnom = 27
temp = 27
method = modified trap
totiter = 2356
traniter = 2331
tranpoints = 1115
accept = 1089
rejected = 26
matrix size = 11
fillins = 0
solver = Normal
Matrix Compiler1: 674 bytes object code size  0.1/0.1/[0.1]
Matrix Compiler2: 847 bytes object code size  0.1/0.1/[0.1]

