Circuit: * C:\Users\user\Documents\LTspiceXVII\file\Montecarlo\monte_SiC.asc

Direct Newton iteration for .op point succeeded.
.step tol1=0
.step tol1=0.01
.step tol1=0.02
.step tol1=0.03
.step tol1=0.04
.step tol1=0.05
.step tol1=0.06
.step tol1=0.07
.step tol1=0.08
.step tol1=0.09
.step tol1=0.1
.step tol1=0.11
.step tol1=0.12
.step tol1=0.13
.step tol1=0.14
.step tol1=0.15
.step tol1=0.16
.step tol1=0.17
.step tol1=0.18
.step tol1=0.19
.step tol1=0.2
.step tol1=0.21
.step tol1=0.22
.step tol1=0.23
.step tol1=0.24
.step tol1=0.25
.step tol1=0.26
.step tol1=0.27
.step tol1=0.28
.step tol1=0.29
.step tol1=0.3
.step tol1=0.31
.step tol1=0.32
.step tol1=0.33
.step tol1=0.34
.step tol1=0.35
.step tol1=0.36
.step tol1=0.37
.step tol1=0.38
.step tol1=0.39
.step tol1=0.4
.step tol1=0.41
.step tol1=0.42
.step tol1=0.43
.step tol1=0.44
.step tol1=0.45
.step tol1=0.46
.step tol1=0.47
.step tol1=0.48
.step tol1=0.49
.step tol1=0.5
.step tol1=0.51
.step tol1=0.52
.step tol1=0.53
.step tol1=0.54
.step tol1=0.55
.step tol1=0.56
.step tol1=0.57
.step tol1=0.58
.step tol1=0.59
.step tol1=0.6
.step tol1=0.61
.step tol1=0.62
.step tol1=0.63
.step tol1=0.64
.step tol1=0.65
.step tol1=0.66
.step tol1=0.67
.step tol1=0.68
.step tol1=0.69
.step tol1=0.7
.step tol1=0.71
.step tol1=0.72
.step tol1=0.73
.step tol1=0.74
.step tol1=0.75
.step tol1=0.76
.step tol1=0.77
.step tol1=0.78
.step tol1=0.79
.step tol1=0.8
.step tol1=0.81
.step tol1=0.82
.step tol1=0.83
.step tol1=0.84
.step tol1=0.85
.step tol1=0.86
.step tol1=0.87
.step tol1=0.88
.step tol1=0.89
.step tol1=0.9
.step tol1=0.91
.step tol1=0.92
.step tol1=0.93
.step tol1=0.94
.step tol1=0.95
.step tol1=0.96
.step tol1=0.97
.step tol1=0.98
.step tol1=0.99
.step tol1=1


Measurement: imax
  step	MAX(-i(v1))	FROM	TO
     1	9.80646	0	0.0001
     2	9.80647	0	0.0001
     3	9.80647	0	0.0001
     4	9.80647	0	0.0001
     5	9.80647	0	0.0001
     6	9.80647	0	0.0001
     7	9.80647	0	0.0001
     8	9.80647	0	0.0001
     9	9.80643	0	0.0001
    10	9.80647	0	0.0001
    11	9.80643	0	0.0001
    12	9.80647	0	0.0001
    13	9.80647	0	0.0001
    14	9.80647	0	0.0001
    15	9.80647	0	0.0001
    16	9.80647	0	0.0001
    17	9.80647	0	0.0001
    18	9.80647	0	0.0001
    19	9.80647	0	0.0001
    20	9.80647	0	0.0001
    21	9.80647	0	0.0001
    22	9.80643	0	0.0001
    23	9.80643	0	0.0001
    24	9.80643	0	0.0001
    25	9.80648	0	0.0001
    26	9.80648	0	0.0001
    27	9.80648	0	0.0001
    28	9.80643	0	0.0001
    29	9.80643	0	0.0001
    30	9.80648	0	0.0001
    31	9.80643	0	0.0001
    32	9.80643	0	0.0001
    33	9.80643	0	0.0001
    34	9.80643	0	0.0001
    35	9.80649	0	0.0001
    36	9.80643	0	0.0001
    37	9.80646	0	0.0001
    38	9.80649	0	0.0001
    39	9.80643	0	0.0001
    40	9.80643	0	0.0001
    41	9.80643	0	0.0001
    42	9.80646	0	0.0001
    43	9.80643	0	0.0001
    44	9.80643	0	0.0001
    45	9.80649	0	0.0001
    46	9.80643	0	0.0001
    47	9.80644	0	0.0001
    48	9.80643	0	0.0001
    49	9.80645	0	0.0001
    50	9.80643	0	0.0001
    51	9.80643	0	0.0001
    52	9.80647	0	0.0001
    53	9.80647	0	0.0001
    54	9.80643	0	0.0001
    55	9.80643	0	0.0001
    56	9.80643	0	0.0001
    57	9.80643	0	0.0001
    58	9.80643	0	0.0001
    59	9.80649	0	0.0001
    60	9.80643	0	0.0001
    61	9.80643	0	0.0001
    62	9.80643	0	0.0001
    63	9.80643	0	0.0001
    64	9.80643	0	0.0001
    65	9.80643	0	0.0001
    66	9.80647	0	0.0001
    67	9.80643	0	0.0001
    68	9.80643	0	0.0001
    69	9.80644	0	0.0001
    70	9.80645	0	0.0001
    71	9.80643	0	0.0001
    72	9.80643	0	0.0001
    73	9.80643	0	0.0001
    74	9.80645	0	0.0001
    75	9.80643	0	0.0001
    76	9.80643	0	0.0001
    77	9.80643	0	0.0001
    78	9.80643	0	0.0001
    79	9.80646	0	0.0001
    80	9.80643	0	0.0001
    81	9.80646	0	0.0001
    82	9.80643	0	0.0001
    83	9.80647	0	0.0001
    84	9.80643	0	0.0001
    85	9.80643	0	0.0001
    86	9.80643	0	0.0001
    87	9.80643	0	0.0001
    88	9.80643	0	0.0001
    89	9.80643	0	0.0001
    90	9.80643	0	0.0001
    91	9.80647	0	0.0001
    92	9.80646	0	0.0001
    93	9.80643	0	0.0001
    94	9.80644	0	0.0001
    95	9.80643	0	0.0001
    96	9.80643	0	0.0001
    97	9.80643	0	0.0001
    98	9.80643	0	0.0001
    99	9.80649	0	0.0001
   100	9.80648	0	0.0001
   101	9.80643	0	0.0001

Measurement: tr1
  step	tr1	FROM	TO
     1	1.8838e-007	2.01446e-005	2.0333e-005
     2	1.86708e-007	2.01443e-005	2.0331e-005
     3	1.85034e-007	2.01441e-005	2.03291e-005
     4	1.83378e-007	2.01438e-005	2.03272e-005
     5	1.81757e-007	2.01436e-005	2.03253e-005
     6	1.80134e-007	2.01433e-005	2.03234e-005
     7	1.78531e-007	2.01431e-005	2.03216e-005
     8	1.76993e-007	2.01428e-005	2.03198e-005
     9	1.75474e-007	2.01426e-005	2.03181e-005
    10	1.73991e-007	2.01424e-005	2.03164e-005
    11	1.72521e-007	2.01422e-005	2.03147e-005
    12	1.71075e-007	2.0142e-005	2.03131e-005
    13	1.69646e-007	2.01418e-005	2.03114e-005
    14	1.68234e-007	2.01416e-005	2.03098e-005
    15	1.6684e-007	2.01414e-005	2.03082e-005
    16	1.65464e-007	2.01412e-005	2.03067e-005
    17	1.64106e-007	2.0141e-005	2.03051e-005
    18	1.62765e-007	2.01408e-005	2.03036e-005
    19	1.61441e-007	2.01406e-005	2.03021e-005
    20	1.60135e-007	2.01405e-005	2.03006e-005
    21	1.58844e-007	2.01403e-005	2.02991e-005
    22	1.57568e-007	2.01401e-005	2.02977e-005
    23	1.56311e-007	2.014e-005	2.02963e-005
    24	1.55069e-007	2.01398e-005	2.02949e-005
    25	1.53845e-007	2.01396e-005	2.02935e-005
    26	1.52626e-007	2.01395e-005	2.02921e-005
    27	1.5141e-007	2.01393e-005	2.02907e-005
    28	1.50207e-007	2.01392e-005	2.02894e-005
    29	1.49021e-007	2.0139e-005	2.0288e-005
    30	1.47853e-007	2.01389e-005	2.02867e-005
    31	1.46695e-007	2.01387e-005	2.02854e-005
    32	1.46078e-007	2.01386e-005	2.02847e-005
    33	1.47404e-007	2.0137e-005	2.02844e-005
    34	1.46049e-007	2.01378e-005	2.02839e-005
    35	1.4262e-007	2.01381e-005	2.02807e-005
    36	1.43419e-007	2.01372e-005	2.02806e-005
    37	1.42464e-007	2.01368e-005	2.02793e-005
    38	1.38761e-007	2.01377e-005	2.02765e-005
    39	1.40585e-007	2.01372e-005	2.02778e-005
    40	1.39232e-007	2.01368e-005	2.02761e-005
    41	1.39111e-007	2.01369e-005	2.0276e-005
    42	1.37863e-007	2.01362e-005	2.02741e-005
    43	1.36088e-007	2.01364e-005	2.02725e-005
    44	1.33584e-007	2.01364e-005	2.02699e-005
    45	1.32382e-007	2.01368e-005	2.02692e-005
    46	1.32083e-007	2.01365e-005	2.02686e-005
    47	1.34347e-007	2.01362e-005	2.02705e-005
    48	1.3251e-007	2.01359e-005	2.02684e-005
    49	1.31467e-007	2.01355e-005	2.0267e-005
    50	1.30817e-007	2.01358e-005	2.02666e-005
    51	1.30307e-007	2.01358e-005	2.02661e-005
    52	1.28238e-007	2.01358e-005	2.0264e-005
    53	1.27709e-007	2.01349e-005	2.02627e-005
    54	1.26719e-007	2.0135e-005	2.02617e-005
    55	1.23636e-007	2.01358e-005	2.02594e-005
    56	1.24981e-007	2.01346e-005	2.02596e-005
    57	1.21577e-007	2.01356e-005	2.02572e-005
    58	1.21318e-007	2.01355e-005	2.02568e-005
    59	1.22958e-007	2.01342e-005	2.02572e-005
    60	1.20337e-007	2.01345e-005	2.02548e-005
    61	1.1896e-007	2.01348e-005	2.02537e-005
    62	1.17599e-007	2.01351e-005	2.02527e-005
    63	1.17002e-007	2.01351e-005	2.02521e-005
    64	1.16497e-007	2.0135e-005	2.02515e-005
    65	1.15954e-007	2.01348e-005	2.02508e-005
    66	1.15722e-007	2.01347e-005	2.02504e-005
    67	1.15767e-007	2.01345e-005	2.02503e-005
    68	1.15852e-007	2.01343e-005	2.02502e-005
    69	1.14683e-007	2.01342e-005	2.02489e-005
    70	1.13597e-007	2.0134e-005	2.02476e-005
    71	1.12595e-007	2.01339e-005	2.02465e-005
    72	1.11116e-007	2.01337e-005	2.02448e-005
    73	1.1056e-007	2.01336e-005	2.02441e-005
    74	1.0958e-007	2.01334e-005	2.0243e-005
    75	1.0913e-007	2.01336e-005	2.02427e-005
    76	1.09008e-007	2.01336e-005	2.02426e-005
    77	1.08419e-007	2.01335e-005	2.0242e-005
    78	1.07853e-007	2.01335e-005	2.02414e-005
    79	1.07304e-007	2.01335e-005	2.02408e-005
    80	1.0677e-007	2.01335e-005	2.02402e-005
    81	1.06255e-007	2.01334e-005	2.02397e-005
    82	1.04856e-007	2.01334e-005	2.02383e-005
    83	1.04208e-007	2.01334e-005	2.02376e-005
    84	1.03559e-007	2.01334e-005	2.02369e-005
    85	1.02934e-007	2.01334e-005	2.02363e-005
    86	1.02324e-007	2.01333e-005	2.02357e-005
    87	1.01673e-007	2.01333e-005	2.0235e-005
    88	1.00534e-007	2.01326e-005	2.02331e-005
    89	1.00474e-007	2.01322e-005	2.02327e-005
    90	1.00061e-007	2.01332e-005	2.02333e-005
    91	9.92684e-008	2.01331e-005	2.02323e-005
    92	9.8667e-008	2.0133e-005	2.02316e-005
    93	9.87633e-008	2.01328e-005	2.02316e-005
    94	9.71837e-008	2.01324e-005	2.02296e-005
    95	9.74722e-008	2.01318e-005	2.02293e-005
    96	9.7018e-008	2.01316e-005	2.02286e-005
    97	9.66569e-008	2.01315e-005	2.02281e-005
    98	9.61195e-008	2.01315e-005	2.02276e-005
    99	9.49264e-008	2.01329e-005	2.02279e-005
   100	9.50603e-008	2.01319e-005	2.02269e-005
   101	9.47933e-008	2.01313e-005	2.02261e-005

Measurement: tr2
  step	tr2	FROM	TO
     1	4.24943e-007	6.12087e-005	6.16336e-005
     2	4.12963e-007	6.12144e-005	6.16274e-005
     3	4.15526e-007	6.12203e-005	6.16358e-005
     4	4.06958e-007	6.12262e-005	6.16331e-005
     5	4.01988e-007	6.12321e-005	6.16341e-005
     6	3.98111e-007	6.12378e-005	6.16359e-005
     7	3.89847e-007	6.12439e-005	6.16338e-005
     8	3.88011e-007	6.12498e-005	6.16379e-005
     9	3.89184e-007	6.12552e-005	6.16444e-005
    10	3.80807e-007	6.12617e-005	6.16425e-005
    11	3.76657e-007	6.12674e-005	6.1644e-005
    12	3.80352e-007	6.12729e-005	6.16533e-005
    13	3.74962e-007	6.12788e-005	6.16538e-005
    14	3.68259e-007	6.12844e-005	6.16527e-005
    15	3.64175e-007	6.12906e-005	6.16548e-005
    16	3.65767e-007	6.12967e-005	6.16625e-005
    17	3.6142e-007	6.13013e-005	6.16627e-005
    18	3.58451e-007	6.13082e-005	6.16667e-005
    19	3.55513e-007	6.13136e-005	6.16691e-005
    20	3.55258e-007	6.13195e-005	6.16748e-005
    21	3.48944e-007	6.1326e-005	6.1675e-005
    22	3.45979e-007	6.13317e-005	6.16777e-005
    23	3.46346e-007	6.1338e-005	6.16843e-005
    24	3.40504e-007	6.1344e-005	6.16845e-005
    25	3.37207e-007	6.13496e-005	6.16868e-005
    26	3.364e-007	6.13558e-005	6.16922e-005
    27	3.32858e-007	6.13614e-005	6.16943e-005
    28	3.31196e-007	6.13675e-005	6.16987e-005
    29	3.27701e-007	6.13732e-005	6.17009e-005
    30	3.24928e-007	6.13797e-005	6.17046e-005
    31	3.22219e-007	6.13857e-005	6.17079e-005
    32	3.19983e-007	6.13916e-005	6.17116e-005
    33	3.15115e-007	6.1396e-005	6.17112e-005
    34	3.14272e-007	6.14023e-005	6.17165e-005
    35	3.08084e-007	6.14096e-005	6.17177e-005
    36	3.06676e-007	6.14156e-005	6.17223e-005
    37	3.08393e-007	6.14197e-005	6.17281e-005
    38	3.03578e-007	6.14277e-005	6.17312e-005
    39	3.00163e-007	6.14337e-005	6.17338e-005
    40	2.99709e-007	6.14402e-005	6.17399e-005
    41	2.96663e-007	6.14445e-005	6.17412e-005
    42	2.97139e-007	6.14518e-005	6.17489e-005
    43	2.95121e-007	6.14566e-005	6.17517e-005
    44	2.93088e-007	6.14642e-005	6.17573e-005
    45	2.90905e-007	6.14705e-005	6.17614e-005
    46	2.89129e-007	6.14763e-005	6.17654e-005
    47	2.89617e-007	6.14824e-005	6.1772e-005
    48	2.80061e-007	6.14886e-005	6.17687e-005
    49	2.84503e-007	6.14951e-005	6.17796e-005
    50	2.82269e-007	6.14991e-005	6.17814e-005
    51	2.81338e-007	6.15061e-005	6.17874e-005
    52	2.80289e-007	6.15113e-005	6.17915e-005
    53	2.75722e-007	6.15185e-005	6.17942e-005
    54	2.74406e-007	6.15246e-005	6.1799e-005
    55	2.75735e-007	6.15292e-005	6.18049e-005
    56	2.72197e-007	6.15357e-005	6.18079e-005
    57	2.72378e-007	6.15413e-005	6.18136e-005
    58	2.69998e-007	6.15466e-005	6.18166e-005
    59	2.69445e-007	6.15525e-005	6.18219e-005
    60	2.59517e-007	6.15632e-005	6.18228e-005
    61	2.57217e-007	6.15694e-005	6.18266e-005
    62	2.56664e-007	6.15756e-005	6.18322e-005
    63	2.55921e-007	6.15817e-005	6.18376e-005
    64	2.56828e-007	6.1588e-005	6.18449e-005
    65	2.53376e-007	6.15943e-005	6.18477e-005
    66	2.49082e-007	6.15995e-005	6.18486e-005
    67	2.48107e-007	6.16057e-005	6.18538e-005
    68	2.48749e-007	6.16136e-005	6.18624e-005
    69	2.44661e-007	6.16184e-005	6.18631e-005
    70	2.42814e-007	6.16242e-005	6.1867e-005
    71	2.41712e-007	6.16308e-005	6.18725e-005
    72	2.40316e-007	6.16388e-005	6.18791e-005
    73	2.41465e-007	6.16435e-005	6.1885e-005
    74	2.40469e-007	6.16496e-005	6.18901e-005
    75	2.38554e-007	6.16558e-005	6.18943e-005
    76	2.38388e-007	6.16616e-005	6.18999e-005
    77	2.35733e-007	6.16693e-005	6.1905e-005
    78	2.37376e-007	6.16735e-005	6.19108e-005
    79	2.32792e-007	6.16821e-005	6.19149e-005
    80	2.31735e-007	6.16898e-005	6.19216e-005
    81	2.34466e-007	6.16939e-005	6.19284e-005
    82	2.31457e-007	6.17014e-005	6.19329e-005
    83	2.26456e-007	6.17069e-005	6.19333e-005
    84	2.2516e-007	6.1713e-005	6.19382e-005
    85	2.24902e-007	6.17195e-005	6.19444e-005
    86	2.25124e-007	6.17288e-005	6.19539e-005
    87	2.22617e-007	6.17323e-005	6.19549e-005
    88	2.20941e-007	6.17386e-005	6.19595e-005
    89	2.2002e-007	6.17447e-005	6.19648e-005
    90	2.23699e-007	6.17498e-005	6.19735e-005
    91	2.18798e-007	6.17606e-005	6.19794e-005
    92	2.16494e-007	6.17645e-005	6.1981e-005
    93	2.16059e-007	6.17707e-005	6.19868e-005
    94	2.16665e-007	6.17769e-005	6.19936e-005
    95	2.19209e-007	6.17824e-005	6.20016e-005
    96	2.18769e-007	6.17889e-005	6.20077e-005
    97	2.17893e-007	6.17935e-005	6.20114e-005
    98	2.15361e-007	6.17976e-005	6.2013e-005
    99	2.14063e-007	6.1805e-005	6.20191e-005
   100	2.08517e-007	6.182e-005	6.20285e-005
   101	2.0755e-007	6.18261e-005	6.20337e-005

Measurement: vth
  step	v(n004)	at
     1	1.88283	2.01041e-005
     2	1.88346	2.01041e-005
     3	1.88413	2.0104e-005
     4	1.88483	2.0104e-005
     5	1.88556	2.0104e-005
     6	1.88631	2.0104e-005
     7	1.88707	2.01039e-005
     8	1.88786	2.01039e-005
     9	1.88866	2.01039e-005
    10	1.88947	2.01039e-005
    11	1.89029	2.01038e-005
    12	1.89112	2.01038e-005
    13	1.89196	2.01038e-005
    14	1.8928	2.01038e-005
    15	1.89365	2.01038e-005
    16	1.8945	2.01037e-005
    17	1.89535	2.01037e-005
    18	1.8962	2.01037e-005
    19	1.89706	2.01037e-005
    20	1.89791	2.01037e-005
    21	1.89875	2.01037e-005
    22	1.8996	2.01037e-005
    23	1.90044	2.01037e-005
    24	1.90128	2.01036e-005
    25	1.90211	2.01036e-005
    26	1.90288	2.01036e-005
    27	1.90358	2.01036e-005
    28	1.9043	2.01036e-005
    29	1.90503	2.01036e-005
    30	1.90576	2.01036e-005
    31	1.90649	2.01036e-005
    32	1.90723	2.01036e-005
    33	1.9902	2.01061e-005
    34	1.94185	2.01045e-005
    35	1.97003	2.01054e-005
    36	1.95754	2.0105e-005
    37	1.99452	2.01061e-005
    38	1.95918	2.0105e-005
    39	1.94427	2.01044e-005
    40	1.9465	2.01045e-005
    41	1.94476	2.01044e-005
    42	1.97916	2.01055e-005
    43	1.96098	2.01049e-005
    44	1.96816	2.01051e-005
    45	1.95882	2.01047e-005
    46	1.95167	2.01045e-005
    47	1.94684	2.01043e-005
    48	1.94668	2.01043e-005
    49	1.95409	2.01045e-005
    50	1.94672	2.01042e-005
    51	1.94829	2.01043e-005
    52	1.95105	2.01043e-005
    53	1.97821	2.01052e-005
    54	1.96557	2.01047e-005
    55	1.98007	2.01052e-005
    56	1.96023	2.01045e-005
    57	1.98642	2.01053e-005
    58	1.97969	2.01051e-005
    59	1.98159	2.01052e-005
    60	1.97809	2.0105e-005
    61	1.97469	2.01049e-005
    62	1.97143	2.01048e-005
    63	1.96833	2.01047e-005
    64	1.96549	2.01045e-005
    65	1.96301	2.01044e-005
    66	1.96047	2.01043e-005
    67	1.95815	2.01043e-005
    68	1.95606	2.01042e-005
    69	1.95424	2.01041e-005
    70	1.95272	2.0104e-005
    71	1.95152	2.0104e-005
    72	1.95069	2.01039e-005
    73	1.95024	2.01039e-005
    74	1.95023	2.01039e-005
    75	1.95212	2.01039e-005
    76	1.95304	2.01039e-005
    77	1.95407	2.0104e-005
    78	1.95519	2.0104e-005
    79	1.95637	2.0104e-005
    80	1.95761	2.0104e-005
    81	1.9589	2.01041e-005
    82	1.96023	2.01041e-005
    83	1.96158	2.01041e-005
    84	1.96295	2.01042e-005
    85	1.96434	2.01042e-005
    86	1.96574	2.01042e-005
    87	1.96714	2.01043e-005
    88	1.96375	2.01041e-005
    89	1.9623	2.01041e-005
    90	1.99375	2.01051e-005
    91	1.98205	2.01047e-005
    92	1.98118	2.01046e-005
    93	1.98486	2.01047e-005
    94	1.97217	2.01043e-005
    95	1.95198	2.01037e-005
    96	1.95368	2.01037e-005
    97	1.95661	2.01038e-005
    98	1.96094	2.01039e-005
    99	1.98363	2.01046e-005
   100	1.97068	2.01042e-005
   101	1.96184	2.01039e-005


Date: Wed Mar 23 09:32:44 2022
Total elapsed time: 1.298 seconds.

tnom = 27
temp = 27
method = modified trap
totiter = 2347
traniter = 2317
tranpoints = 1124
accept = 1099
rejected = 25
matrix size = 11
fillins = 0
solver = Normal
Matrix Compiler1: 674 bytes object code size  0.1/0.1/[0.1]
Matrix Compiler2: 847 bytes object code size  0.1/0.1/[0.1]

