Circuit: * C:\Users\user\Documents\LTspiceXVII\file\Montecarlo\monte_SiC.asc

Direct Newton iteration for .op point succeeded.
.step tol1=0
.step tol1=0.01
.step tol1=0.02
.step tol1=0.03
.step tol1=0.04
.step tol1=0.05
.step tol1=0.06
.step tol1=0.07
.step tol1=0.08
.step tol1=0.09
.step tol1=0.1
.step tol1=0.11
.step tol1=0.12
.step tol1=0.13
.step tol1=0.14
.step tol1=0.15
.step tol1=0.16
.step tol1=0.17
.step tol1=0.18
.step tol1=0.19
.step tol1=0.2
.step tol1=0.21
.step tol1=0.22
.step tol1=0.23
.step tol1=0.24
.step tol1=0.25
.step tol1=0.26
.step tol1=0.27
.step tol1=0.28
.step tol1=0.29
.step tol1=0.3
.step tol1=0.31
.step tol1=0.32
.step tol1=0.33
.step tol1=0.34
.step tol1=0.35
.step tol1=0.36
.step tol1=0.37
.step tol1=0.38
.step tol1=0.39
.step tol1=0.4
.step tol1=0.41
.step tol1=0.42
.step tol1=0.43
.step tol1=0.44
.step tol1=0.45
.step tol1=0.46
.step tol1=0.47
.step tol1=0.48
.step tol1=0.49
.step tol1=0.5
.step tol1=0.51
.step tol1=0.52
.step tol1=0.53
.step tol1=0.54
.step tol1=0.55
.step tol1=0.56
.step tol1=0.57
.step tol1=0.58
.step tol1=0.59
.step tol1=0.6
.step tol1=0.61
.step tol1=0.62
.step tol1=0.63
.step tol1=0.64
.step tol1=0.65
.step tol1=0.66
.step tol1=0.67
.step tol1=0.68
.step tol1=0.69
.step tol1=0.7
.step tol1=0.71
.step tol1=0.72
.step tol1=0.73
.step tol1=0.74
.step tol1=0.75
.step tol1=0.76
.step tol1=0.77
.step tol1=0.78
.step tol1=0.79
.step tol1=0.8
.step tol1=0.81
.step tol1=0.82
.step tol1=0.83
.step tol1=0.84
.step tol1=0.85
.step tol1=0.86
.step tol1=0.87
.step tol1=0.88
.step tol1=0.89
.step tol1=0.9
.step tol1=0.91
.step tol1=0.92
.step tol1=0.93
.step tol1=0.94
.step tol1=0.95
.step tol1=0.96
.step tol1=0.97
.step tol1=0.98
.step tol1=0.99
.step tol1=1


Measurement: imax
  step	MAX(-i(v1))	FROM	TO
     1	9.80646	0	0.0001
     2	9.80658	0	0.0001
     3	9.80669	0	0.0001
     4	9.80682	0	0.0001
     5	9.80696	0	0.0001
     6	9.80708	0	0.0001
     7	9.80718	0	0.0001
     8	9.8073	0	0.0001
     9	9.80742	0	0.0001
    10	9.80753	0	0.0001
    11	9.80764	0	0.0001
    12	9.80775	0	0.0001
    13	9.80787	0	0.0001
    14	9.80798	0	0.0001
    15	9.80809	0	0.0001
    16	9.80816	0	0.0001
    17	9.80826	0	0.0001
    18	9.80836	0	0.0001
    19	9.80849	0	0.0001
    20	9.80857	0	0.0001
    21	9.80868	0	0.0001
    22	9.80878	0	0.0001
    23	9.80886	0	0.0001
    24	9.80893	0	0.0001
    25	9.80902	0	0.0001
    26	9.80911	0	0.0001
    27	9.80921	0	0.0001
    28	9.80925	0	0.0001
    29	9.80933	0	0.0001
    30	9.80945	0	0.0001
    31	9.80953	0	0.0001
    32	9.8096	0	0.0001
    33	9.80968	0	0.0001
    34	9.80976	0	0.0001
    35	9.80983	0	0.0001
    36	9.8099	0	0.0001
    37	9.80994	0	0.0001
    38	9.81005	0	0.0001
    39	9.81011	0	0.0001
    40	9.81018	0	0.0001
    41	9.81025	0	0.0001
    42	9.81028	0	0.0001
    43	9.81035	0	0.0001
    44	9.81041	0	0.0001
    45	9.81048	0	0.0001
    46	9.81054	0	0.0001
    47	9.8106	0	0.0001
    48	9.81067	0	0.0001
    49	9.81073	0	0.0001
    50	9.81079	0	0.0001
    51	9.81085	0	0.0001
    52	9.8109	0	0.0001
    53	9.81096	0	0.0001
    54	9.81102	0	0.0001
    55	9.81108	0	0.0001
    56	9.81113	0	0.0001
    57	9.81118	0	0.0001
    58	9.81124	0	0.0001
    59	9.81129	0	0.0001
    60	9.81134	0	0.0001
    61	9.8114	0	0.0001
    62	9.81145	0	0.0001
    63	9.8115	0	0.0001
    64	9.81155	0	0.0001
    65	9.8116	0	0.0001
    66	9.81165	0	0.0001
    67	9.8117	0	0.0001
    68	9.81175	0	0.0001
    69	9.8118	0	0.0001
    70	9.81185	0	0.0001
    71	9.81189	0	0.0001
    72	9.81194	0	0.0001
    73	9.81197	0	0.0001
    74	9.81205	0	0.0001
    75	9.81209	0	0.0001
    76	9.81213	0	0.0001
    77	9.81218	0	0.0001
    78	9.81222	0	0.0001
    79	9.81226	0	0.0001
    80	9.8123	0	0.0001
    81	9.81234	0	0.0001
    82	9.81239	0	0.0001
    83	9.81242	0	0.0001
    84	9.81244	0	0.0001
    85	9.81247	0	0.0001
    86	9.81251	0	0.0001
    87	9.81255	0	0.0001
    88	9.81264	0	0.0001
    89	9.81266	0	0.0001
    90	9.81266	0	0.0001
    91	9.8127	0	0.0001
    92	9.81276	0	0.0001
    93	9.81281	0	0.0001
    94	9.81286	0	0.0001
    95	9.81287	0	0.0001
    96	9.81288	0	0.0001
    97	9.81291	0	0.0001
    98	9.81295	0	0.0001
    99	9.81298	0	0.0001
   100	9.81301	0	0.0001
   101	9.81307	0	0.0001

Measurement: tr1
  step	tr1	FROM	TO
     1	1.8838e-007	2.01446e-005	2.0333e-005
     2	1.88683e-007	2.01452e-005	2.03339e-005
     3	1.88926e-007	2.01459e-005	2.03348e-005
     4	1.89075e-007	2.01465e-005	2.03356e-005
     5	1.89129e-007	2.01472e-005	2.03363e-005
     6	1.8912e-007	2.01478e-005	2.03369e-005
     7	1.89892e-007	2.01484e-005	2.03383e-005
     8	1.9137e-007	2.01491e-005	2.03404e-005
     9	1.91872e-007	2.01496e-005	2.03415e-005
    10	1.92411e-007	2.01502e-005	2.03426e-005
    11	1.92933e-007	2.01508e-005	2.03437e-005
    12	1.93548e-007	2.01513e-005	2.03449e-005
    13	1.94211e-007	2.01519e-005	2.03461e-005
    14	1.9453e-007	2.01524e-005	2.03469e-005
    15	1.94782e-007	2.01529e-005	2.03477e-005
    16	1.95571e-007	2.01535e-005	2.0349e-005
    17	1.96409e-007	2.0154e-005	2.03504e-005
    18	1.97244e-007	2.01546e-005	2.03519e-005
    19	1.97026e-007	2.01552e-005	2.03522e-005
    20	1.96293e-007	2.01556e-005	2.03519e-005
    21	1.97055e-007	2.01567e-005	2.03538e-005
    22	1.9661e-007	2.01578e-005	2.03545e-005
    23	1.97021e-007	2.0159e-005	2.03561e-005
    24	1.9698e-007	2.01583e-005	2.03552e-005
    25	1.97392e-007	2.01588e-005	2.03562e-005
    26	1.97794e-007	2.01593e-005	2.03571e-005
    27	1.98726e-007	2.01606e-005	2.03593e-005
    28	1.98779e-007	2.01615e-005	2.03603e-005
    29	1.98829e-007	2.01624e-005	2.03613e-005
    30	1.99151e-007	2.01634e-005	2.03625e-005
    31	1.99392e-007	2.01643e-005	2.03637e-005
    32	1.99534e-007	2.01653e-005	2.03648e-005
    33	1.99317e-007	2.01662e-005	2.03655e-005
    34	1.9944e-007	2.01672e-005	2.03666e-005
    35	1.99556e-007	2.01682e-005	2.03677e-005
    36	1.99558e-007	2.01691e-005	2.03687e-005
    37	1.99376e-007	2.01701e-005	2.03695e-005
    38	1.99218e-007	2.0171e-005	2.03703e-005
    39	1.99411e-007	2.01717e-005	2.03711e-005
    40	1.99675e-007	2.01723e-005	2.0372e-005
    41	1.99976e-007	2.0173e-005	2.03729e-005
    42	1.99956e-007	2.01736e-005	2.03735e-005
    43	2.00632e-007	2.01742e-005	2.03748e-005
    44	2.00904e-007	2.01748e-005	2.03757e-005
    45	2.00993e-007	2.01755e-005	2.03764e-005
    46	2.0125e-007	2.01761e-005	2.03773e-005
    47	2.01556e-007	2.01767e-005	2.03782e-005
    48	2.01888e-007	2.01773e-005	2.03792e-005
    49	2.02261e-007	2.01779e-005	2.03802e-005
    50	1.99518e-007	2.01785e-005	2.03781e-005
    51	2.00211e-007	2.01792e-005	2.03794e-005
    52	1.99178e-007	2.01798e-005	2.03789e-005
    53	1.99634e-007	2.01804e-005	2.038e-005
    54	2.00117e-007	2.0181e-005	2.03811e-005
    55	2.00607e-007	2.01816e-005	2.03822e-005
    56	2.01094e-007	2.01822e-005	2.03833e-005
    57	2.01591e-007	2.01828e-005	2.03844e-005
    58	2.02096e-007	2.01834e-005	2.03855e-005
    59	2.02582e-007	2.0184e-005	2.03866e-005
    60	2.03216e-007	2.01846e-005	2.03878e-005
    61	2.03951e-007	2.01851e-005	2.03891e-005
    62	2.04687e-007	2.01857e-005	2.03904e-005
    63	2.05429e-007	2.01863e-005	2.03917e-005
    64	2.06181e-007	2.01868e-005	2.0393e-005
    65	2.0695e-007	2.01874e-005	2.03944e-005
    66	2.07714e-007	2.0188e-005	2.03957e-005
    67	2.08133e-007	2.01885e-005	2.03966e-005
    68	2.08554e-007	2.0189e-005	2.03976e-005
    69	2.06862e-007	2.01903e-005	2.03971e-005
    70	2.07104e-007	2.01911e-005	2.03982e-005
    71	2.07528e-007	2.01919e-005	2.03994e-005
    72	2.07932e-007	2.01927e-005	2.04006e-005
    73	2.083e-007	2.01935e-005	2.04018e-005
    74	2.09301e-007	2.01956e-005	2.04049e-005
    75	2.09295e-007	2.01966e-005	2.04059e-005
    76	2.09266e-007	2.01975e-005	2.04067e-005
    77	2.09299e-007	2.01983e-005	2.04076e-005
    78	2.09494e-007	2.01991e-005	2.04086e-005
    79	2.09783e-007	2.01998e-005	2.04095e-005
    80	2.10137e-007	2.02004e-005	2.04105e-005
    81	2.10553e-007	2.0201e-005	2.04115e-005
    82	2.11041e-007	2.02015e-005	2.04125e-005
    83	2.1159e-007	2.02019e-005	2.04135e-005
    84	2.10911e-007	2.02006e-005	2.04116e-005
    85	2.12669e-007	2.02023e-005	2.04149e-005
    86	2.14211e-007	2.0202e-005	2.04162e-005
    87	2.13144e-007	2.02038e-005	2.04169e-005
    88	2.14974e-007	2.02019e-005	2.04169e-005
    89	2.1273e-007	2.02064e-005	2.04192e-005
    90	2.12622e-007	2.02055e-005	2.04181e-005
    91	2.13513e-007	2.02075e-005	2.0421e-005
    92	2.13108e-007	2.02089e-005	2.0422e-005
    93	2.16537e-007	2.02067e-005	2.04232e-005
    94	2.14967e-007	2.02084e-005	2.04234e-005
    95	2.13909e-007	2.0211e-005	2.04249e-005
    96	2.15561e-007	2.02088e-005	2.04244e-005
    97	2.15399e-007	2.02099e-005	2.04253e-005
    98	2.13499e-007	2.0211e-005	2.04245e-005
    99	2.15197e-007	2.02121e-005	2.04273e-005
   100	2.1581e-007	2.02138e-005	2.04297e-005
   101	2.15312e-007	2.02153e-005	2.04306e-005

Measurement: tr2
  step	tr2	FROM	TO
     1	4.24943e-007	6.12087e-005	6.16336e-005
     2	4.20667e-007	6.12131e-005	6.16337e-005
     3	4.17688e-007	6.12164e-005	6.16341e-005
     4	4.25052e-007	6.12204e-005	6.16455e-005
     5	4.28864e-007	6.12247e-005	6.16536e-005
     6	4.2041e-007	6.12283e-005	6.16487e-005
     7	4.30606e-007	6.1232e-005	6.16626e-005
     8	4.32759e-007	6.12361e-005	6.16688e-005
     9	4.33354e-007	6.12399e-005	6.16732e-005
    10	4.26062e-007	6.12433e-005	6.16694e-005
    11	4.30094e-007	6.12474e-005	6.16774e-005
    12	4.32159e-007	6.12512e-005	6.16833e-005
    13	4.31961e-007	6.12552e-005	6.16872e-005
    14	4.38715e-007	6.1259e-005	6.16977e-005
    15	4.39642e-007	6.12628e-005	6.17025e-005
    16	4.3616e-007	6.12667e-005	6.17029e-005
    17	4.41489e-007	6.12704e-005	6.17119e-005
    18	4.42605e-007	6.12748e-005	6.17174e-005
    19	4.37637e-007	6.12782e-005	6.17158e-005
    20	4.35432e-007	6.12815e-005	6.17169e-005
    21	4.45534e-007	6.12854e-005	6.1731e-005
    22	4.45835e-007	6.12895e-005	6.17353e-005
    23	4.39687e-007	6.12931e-005	6.17328e-005
    24	4.48055e-007	6.12967e-005	6.17448e-005
    25	4.48592e-007	6.13005e-005	6.17491e-005
    26	4.47072e-007	6.1304e-005	6.17511e-005
    27	4.49639e-007	6.13082e-005	6.17579e-005
    28	4.4963e-007	6.13121e-005	6.17617e-005
    29	4.45643e-007	6.13161e-005	6.17617e-005
    30	4.52989e-007	6.13192e-005	6.17722e-005
    31	4.50059e-007	6.13234e-005	6.17735e-005
    32	4.51856e-007	6.13269e-005	6.17788e-005
    33	4.52277e-007	6.13309e-005	6.17832e-005
    34	4.53189e-007	6.13343e-005	6.17875e-005
    35	4.53832e-007	6.13381e-005	6.17919e-005
    36	4.53169e-007	6.13416e-005	6.17948e-005
    37	4.57165e-007	6.13461e-005	6.18032e-005
    38	4.60196e-007	6.13494e-005	6.18096e-005
    39	4.61603e-007	6.13534e-005	6.1815e-005
    40	4.59105e-007	6.1357e-005	6.18161e-005
    41	4.5912e-007	6.13607e-005	6.18199e-005
    42	4.62649e-007	6.13644e-005	6.1827e-005
    43	4.61143e-007	6.13685e-005	6.18297e-005
    44	4.60083e-007	6.13718e-005	6.18319e-005
    45	4.61039e-007	6.13756e-005	6.18367e-005
    46	4.63815e-007	6.13795e-005	6.18434e-005
    47	4.65197e-007	6.13831e-005	6.18483e-005
    48	4.69993e-007	6.13867e-005	6.18567e-005
    49	4.63043e-007	6.13903e-005	6.18533e-005
    50	4.69034e-007	6.13942e-005	6.18632e-005
    51	4.68459e-007	6.13977e-005	6.18662e-005
    52	4.70582e-007	6.14015e-005	6.1872e-005
    53	4.70511e-007	6.14051e-005	6.18756e-005
    54	4.74734e-007	6.14087e-005	6.18835e-005
    55	4.71791e-007	6.14125e-005	6.18843e-005
    56	4.69385e-007	6.14163e-005	6.18857e-005
    57	4.73611e-007	6.14199e-005	6.18935e-005
    58	4.74431e-007	6.14239e-005	6.18984e-005
    59	4.79013e-007	6.14271e-005	6.19061e-005
    60	4.73697e-007	6.14308e-005	6.19045e-005
    61	4.77038e-007	6.14349e-005	6.1912e-005
    62	4.75309e-007	6.14385e-005	6.19138e-005
    63	4.77608e-007	6.1442e-005	6.19196e-005
    64	4.77831e-007	6.14456e-005	6.19234e-005
    65	4.8498e-007	6.14493e-005	6.19343e-005
    66	4.81083e-007	6.14531e-005	6.19342e-005
    67	4.81192e-007	6.14568e-005	6.1938e-005
    68	4.81989e-007	6.14607e-005	6.19427e-005
    69	4.87942e-007	6.14647e-005	6.19526e-005
    70	4.84314e-007	6.14688e-005	6.19531e-005
    71	4.86868e-007	6.14717e-005	6.19585e-005
    72	4.87483e-007	6.1476e-005	6.19635e-005
    73	4.86696e-007	6.14792e-005	6.19659e-005
    74	4.87276e-007	6.14834e-005	6.19707e-005
    75	4.88914e-007	6.14866e-005	6.19755e-005
    76	4.8981e-007	6.14903e-005	6.19801e-005
    77	4.93306e-007	6.14942e-005	6.19875e-005
    78	4.95517e-007	6.14973e-005	6.19928e-005
    79	4.96593e-007	6.15008e-005	6.19974e-005
    80	4.95641e-007	6.1505e-005	6.20006e-005
    81	4.96004e-007	6.15084e-005	6.20044e-005
    82	4.96391e-007	6.15122e-005	6.20085e-005
    83	4.97727e-007	6.15162e-005	6.20139e-005
    84	4.98731e-007	6.15199e-005	6.20186e-005
    85	4.99181e-007	6.15237e-005	6.20229e-005
    86	4.99788e-007	6.15271e-005	6.20269e-005
    87	5.00638e-007	6.15311e-005	6.20317e-005
    88	5.04347e-007	6.15342e-005	6.20385e-005
    89	5.0325e-007	6.15376e-005	6.20409e-005
    90	5.0449e-007	6.15417e-005	6.20462e-005
    91	5.04064e-007	6.15451e-005	6.20492e-005
    92	5.06771e-007	6.15488e-005	6.20555e-005
    93	5.07949e-007	6.15525e-005	6.20605e-005
    94	5.09544e-007	6.15563e-005	6.20659e-005
    95	5.08614e-007	6.15597e-005	6.20684e-005
    96	5.06111e-007	6.15642e-005	6.20703e-005
    97	5.11392e-007	6.15674e-005	6.20788e-005
    98	5.13458e-007	6.15709e-005	6.20844e-005
    99	5.09696e-007	6.15752e-005	6.20849e-005
   100	5.10373e-007	6.15786e-005	6.20889e-005
   101	5.11355e-007	6.15823e-005	6.20936e-005

Measurement: vth
  step	v(n004)	at
     1	1.88283	2.01041e-005
     2	1.87478	2.01043e-005
     3	1.86873	2.01046e-005
     4	1.8651	2.0105e-005
     5	1.86437	2.01054e-005
     6	1.86715	2.0106e-005
     7	1.87416	2.01067e-005
     8	1.88622	2.01076e-005
     9	1.90431	2.01087e-005
    10	1.9102	2.01094e-005
    11	1.89583	2.01094e-005
    12	1.88159	2.01094e-005
    13	1.86751	2.01093e-005
    14	1.85358	2.01093e-005
    15	1.83979	2.01092e-005
    16	1.82613	2.01092e-005
    17	1.8126	2.01091e-005
    18	1.79874	2.01091e-005
    19	1.78581	2.0109e-005
    20	1.77314	2.0109e-005
    21	1.76074	2.0109e-005
    22	1.74866	2.01089e-005
    23	1.73697	2.01089e-005
    24	1.74671	2.01098e-005
    25	1.73676	2.01098e-005
    26	1.72697	2.01098e-005
    27	1.71733	2.01099e-005
    28	1.70786	2.01099e-005
    29	1.69855	2.011e-005
    30	1.68941	2.011e-005
    31	1.68044	2.01101e-005
    32	1.67167	2.01101e-005
    33	1.66311	2.01102e-005
    34	1.65479	2.01103e-005
    35	1.64672	2.01103e-005
    36	1.63898	2.01104e-005
    37	1.63163	2.01105e-005
    38	1.62478	2.01106e-005
    39	1.61782	2.01107e-005
    40	1.61084	2.01108e-005
    41	1.60412	2.0111e-005
    42	1.59767	2.01111e-005
    43	1.59152	2.01112e-005
    44	1.58567	2.01113e-005
    45	1.58015	2.01115e-005
    46	1.57499	2.01116e-005
    47	1.57019	2.01118e-005
    48	1.56579	2.0112e-005
    49	1.56182	2.01122e-005
    50	1.5583	2.01125e-005
    51	1.55526	2.01127e-005
    52	1.55274	2.0113e-005
    53	1.55077	2.01133e-005
    54	1.5494	2.01136e-005
    55	1.54866	2.0114e-005
    56	1.54859	2.01143e-005
    57	1.54925	2.01148e-005
    58	1.55068	2.01152e-005
    59	1.55294	2.01157e-005
    60	1.55608	2.01163e-005
    61	1.56017	2.01169e-005
    62	1.56525	2.01175e-005
    63	1.57142	2.01183e-005
    64	1.57872	2.0119e-005
    65	1.58723	2.01199e-005
    66	1.59704	2.01208e-005
    67	1.60822	2.01218e-005
    68	1.62085	2.01228e-005
    69	1.63502	2.0124e-005
    70	1.65082	2.01252e-005
    71	1.65937	2.01261e-005
    72	1.65311	2.01262e-005
    73	1.64692	2.01263e-005
    74	1.59477	2.01238e-005
    75	1.58432	2.01236e-005
    76	1.57406	2.01235e-005
    77	1.56396	2.01233e-005
    78	1.55372	2.01231e-005
    79	1.54339	2.0123e-005
    80	1.53303	2.01228e-005
    81	1.52259	2.01226e-005
    82	1.51204	2.01224e-005
    83	1.50134	2.01221e-005
    84	1.56747	2.01262e-005
    85	1.4999	2.01227e-005
    86	1.46143	2.01209e-005
    87	1.5037	2.01236e-005
    88	1.46536	2.01218e-005
    89	1.51104	2.01248e-005
    90	1.64035	2.01329e-005
    91	1.58018	2.01297e-005
    92	1.51427	2.01262e-005
    93	1.4375	2.0122e-005
    94	1.46654	2.01241e-005
    95	1.50297	2.01266e-005
    96	1.47974	2.01257e-005
    97	1.44795	2.01241e-005
    98	1.42669	2.01232e-005
    99	1.59265	2.01337e-005
   100	1.56391	2.01323e-005
   101	1.53629	2.0131e-005


Date: Wed Mar 23 09:35:28 2022
Total elapsed time: 1.393 seconds.

tnom = 27
temp = 27
method = modified trap
totiter = 2451
traniter = 2421
tranpoints = 1111
accept = 1090
rejected = 21
matrix size = 11
fillins = 0
solver = Normal
Matrix Compiler1: 674 bytes object code size  0.1/0.1/[0.1]
Matrix Compiler2: 847 bytes object code size  0.1/0.1/[0.0]

