Circuit: * C:\Users\user\Documents\LTspiceXVII\file\Montecarlo\monte_SiC.asc

Direct Newton iteration for .op point succeeded.
.step tol1=0
.step tol1=0.01
.step tol1=0.02
.step tol1=0.03
.step tol1=0.04
.step tol1=0.05
.step tol1=0.06
.step tol1=0.07
.step tol1=0.08
.step tol1=0.09
.step tol1=0.1
.step tol1=0.11
.step tol1=0.12
.step tol1=0.13
.step tol1=0.14
.step tol1=0.15
.step tol1=0.16
.step tol1=0.17
.step tol1=0.18
.step tol1=0.19
.step tol1=0.2
.step tol1=0.21
.step tol1=0.22
.step tol1=0.23
.step tol1=0.24
.step tol1=0.25
.step tol1=0.26
.step tol1=0.27
.step tol1=0.28
.step tol1=0.29
.step tol1=0.3
.step tol1=0.31
.step tol1=0.32
.step tol1=0.33
.step tol1=0.34
.step tol1=0.35
.step tol1=0.36
.step tol1=0.37
.step tol1=0.38
.step tol1=0.39
.step tol1=0.4
.step tol1=0.41
.step tol1=0.42
.step tol1=0.43
.step tol1=0.44
.step tol1=0.45
.step tol1=0.46
.step tol1=0.47
.step tol1=0.48
.step tol1=0.49
.step tol1=0.5
.step tol1=0.51
.step tol1=0.52
.step tol1=0.53
.step tol1=0.54
.step tol1=0.55
.step tol1=0.56
.step tol1=0.57
.step tol1=0.58
.step tol1=0.59
.step tol1=0.6
.step tol1=0.61
.step tol1=0.62
.step tol1=0.63
.step tol1=0.64
.step tol1=0.65
.step tol1=0.66
.step tol1=0.67
.step tol1=0.68
.step tol1=0.69
.step tol1=0.7
.step tol1=0.71
.step tol1=0.72
.step tol1=0.73
.step tol1=0.74
.step tol1=0.75
.step tol1=0.76
.step tol1=0.77
.step tol1=0.78
.step tol1=0.79
.step tol1=0.8
.step tol1=0.81
.step tol1=0.82
.step tol1=0.83
.step tol1=0.84
.step tol1=0.85
.step tol1=0.86
.step tol1=0.87
.step tol1=0.88
.step tol1=0.89
.step tol1=0.9
.step tol1=0.91
.step tol1=0.92
.step tol1=0.93
.step tol1=0.94
.step tol1=0.95
.step tol1=0.96
.step tol1=0.97
.step tol1=0.98
.step tol1=0.99
.step tol1=1


Measurement: imax
  step	MAX(-i(v1))	FROM	TO
     1	0.998033	0	0.0001
     2	0.998033	0	0.0001
     3	0.998033	0	0.0001
     4	0.998034	0	0.0001
     5	0.998034	0	0.0001
     6	0.998035	0	0.0001
     7	0.998036	0	0.0001
     8	0.998033	0	0.0001
     9	0.998034	0	0.0001
    10	0.998036	0	0.0001
    11	0.998036	0	0.0001
    12	0.998036	0	0.0001
    13	0.998034	0	0.0001
    14	0.998034	0	0.0001
    15	0.998035	0	0.0001
    16	0.998035	0	0.0001
    17	0.998035	0	0.0001
    18	0.998036	0	0.0001
    19	0.998036	0	0.0001
    20	0.998036	0	0.0001
    21	0.998034	0	0.0001
    22	0.998034	0	0.0001
    23	0.998034	0	0.0001
    24	0.998036	0	0.0001
    25	0.998036	0	0.0001
    26	0.998035	0	0.0001
    27	0.998034	0	0.0001
    28	0.998033	0	0.0001
    29	0.998033	0	0.0001
    30	0.998033	0	0.0001
    31	0.998033	0	0.0001
    32	0.998033	0	0.0001
    33	0.998033	0	0.0001
    34	0.998033	0	0.0001
    35	0.998033	0	0.0001
    36	0.998033	0	0.0001
    37	0.998033	0	0.0001
    38	0.998034	0	0.0001
    39	0.998035	0	0.0001
    40	0.998034	0	0.0001
    41	0.998034	0	0.0001
    42	0.998034	0	0.0001
    43	0.998034	0	0.0001
    44	0.998035	0	0.0001
    45	0.998035	0	0.0001
    46	0.998036	0	0.0001
    47	0.998036	0	0.0001
    48	0.998036	0	0.0001
    49	0.998035	0	0.0001
    50	0.998036	0	0.0001
    51	0.998036	0	0.0001
    52	0.998036	0	0.0001
    53	0.998036	0	0.0001
    54	0.998036	0	0.0001
    55	0.998034	0	0.0001
    56	0.998034	0	0.0001
    57	0.998033	0	0.0001
    58	0.998033	0	0.0001
    59	0.998033	0	0.0001
    60	0.998033	0	0.0001
    61	0.998033	0	0.0001
    62	0.998033	0	0.0001
    63	0.998033	0	0.0001
    64	0.998033	0	0.0001
    65	0.998035	0	0.0001
    66	0.998035	0	0.0001
    67	0.998035	0	0.0001
    68	0.998034	0	0.0001
    69	0.998035	0	0.0001
    70	0.998034	0	0.0001
    71	0.998034	0	0.0001
    72	0.998034	0	0.0001
    73	0.998034	0	0.0001
    74	0.998035	0	0.0001
    75	0.998035	0	0.0001
    76	0.998034	0	0.0001
    77	0.998034	0	0.0001
    78	0.998034	0	0.0001
    79	0.998034	0	0.0001
    80	0.998034	0	0.0001
    81	0.998034	0	0.0001
    82	0.998034	0	0.0001
    83	0.998036	0	0.0001
    84	0.998033	0	0.0001
    85	0.998033	0	0.0001
    86	0.998033	0	0.0001
    87	0.998036	0	0.0001
    88	0.998036	0	0.0001
    89	0.998035	0	0.0001
    90	0.998034	0	0.0001
    91	0.998034	0	0.0001
    92	0.998033	0	0.0001
    93	0.998033	0	0.0001
    94	0.998033	0	0.0001
    95	0.998033	0	0.0001
    96	0.998033	0	0.0001
    97	0.998033	0	0.0001
    98	0.998033	0	0.0001
    99	0.998034	0	0.0001
   100	0.998034	0	0.0001
   101	0.998034	0	0.0001

Measurement: tr1
  step	tr1	FROM	TO
     1	1.46403e-007	2.01363e-005	2.02827e-005
     2	1.46346e-007	2.01362e-005	2.02826e-005
     3	1.46288e-007	2.01361e-005	2.02824e-005
     4	1.46245e-007	2.01361e-005	2.02823e-005
     5	1.46225e-007	2.01359e-005	2.02822e-005
     6	1.46203e-007	2.01358e-005	2.0282e-005
     7	1.4618e-007	2.01357e-005	2.02819e-005
     8	1.46155e-007	2.01356e-005	2.02818e-005
     9	1.4613e-007	2.01355e-005	2.02817e-005
    10	1.46104e-007	2.01354e-005	2.02815e-005
    11	1.46076e-007	2.01353e-005	2.02814e-005
    12	1.46046e-007	2.01352e-005	2.02813e-005
    13	1.46386e-007	2.01346e-005	2.0281e-005
    14	1.46358e-007	2.01346e-005	2.0281e-005
    15	1.4633e-007	2.01346e-005	2.02809e-005
    16	1.46303e-007	2.01345e-005	2.02808e-005
    17	1.46276e-007	2.01345e-005	2.02808e-005
    18	1.46248e-007	2.01344e-005	2.02807e-005
    19	1.46221e-007	2.01344e-005	2.02806e-005
    20	1.46194e-007	2.01344e-005	2.02806e-005
    21	1.46165e-007	2.01343e-005	2.02805e-005
    22	1.46138e-007	2.01343e-005	2.02804e-005
    23	1.4611e-007	2.01342e-005	2.02804e-005
    24	1.46083e-007	2.01342e-005	2.02803e-005
    25	1.46066e-007	2.01342e-005	2.02802e-005
    26	1.46053e-007	2.01341e-005	2.02802e-005
    27	1.46039e-007	2.01341e-005	2.02801e-005
    28	1.46025e-007	2.01341e-005	2.02801e-005
    29	1.46011e-007	2.0134e-005	2.028e-005
    30	1.45997e-007	2.0134e-005	2.028e-005
    31	1.45981e-007	2.01339e-005	2.02799e-005
    32	1.45966e-007	2.01339e-005	2.02799e-005
    33	1.45951e-007	2.01339e-005	2.02798e-005
    34	1.4594e-007	2.01338e-005	2.02798e-005
    35	1.45929e-007	2.01338e-005	2.02797e-005
    36	1.45922e-007	2.01337e-005	2.02797e-005
    37	1.45965e-007	2.01337e-005	2.02797e-005
    38	1.46035e-007	2.01337e-005	2.02797e-005
    39	1.45942e-007	2.01337e-005	2.02796e-005
    40	1.45936e-007	2.01336e-005	2.02796e-005
    41	1.45931e-007	2.01336e-005	2.02795e-005
    42	1.45926e-007	2.01335e-005	2.02795e-005
    43	1.45922e-007	2.01335e-005	2.02794e-005
    44	1.45919e-007	2.01335e-005	2.02794e-005
    45	1.45916e-007	2.01334e-005	2.02794e-005
    46	1.45913e-007	2.01334e-005	2.02793e-005
    47	1.4591e-007	2.01334e-005	2.02793e-005
    48	1.45908e-007	2.01333e-005	2.02792e-005
    49	1.459e-007	2.01333e-005	2.02792e-005
    50	1.45897e-007	2.01333e-005	2.02792e-005
    51	1.45895e-007	2.01332e-005	2.02791e-005
    52	1.45893e-007	2.01332e-005	2.02791e-005
    53	1.45891e-007	2.01332e-005	2.0279e-005
    54	1.45889e-007	2.01331e-005	2.0279e-005
    55	1.45886e-007	2.01331e-005	2.0279e-005
    56	1.51599e-007	2.01331e-005	2.02847e-005
    57	1.51628e-007	2.0133e-005	2.02846e-005
    58	1.51658e-007	2.0133e-005	2.02846e-005
    59	1.45881e-007	2.0133e-005	2.02788e-005
    60	1.4588e-007	2.01329e-005	2.02788e-005
    61	1.45877e-007	2.01329e-005	2.02788e-005
    62	1.45876e-007	2.01328e-005	2.02787e-005
    63	1.45875e-007	2.01328e-005	2.02787e-005
    64	1.45874e-007	2.01328e-005	2.02787e-005
    65	1.45874e-007	2.01327e-005	2.02786e-005
    66	1.45876e-007	2.01327e-005	2.02786e-005
    67	1.45878e-007	2.01327e-005	2.02786e-005
    68	1.4588e-007	2.01326e-005	2.02785e-005
    69	1.45882e-007	2.01326e-005	2.02785e-005
    70	1.45884e-007	2.01326e-005	2.02785e-005
    71	1.45887e-007	2.01325e-005	2.02784e-005
    72	1.45889e-007	2.01325e-005	2.02784e-005
    73	1.45891e-007	2.01325e-005	2.02784e-005
    74	1.45893e-007	2.01325e-005	2.02783e-005
    75	1.45919e-007	2.01324e-005	2.02783e-005
    76	1.45947e-007	2.01324e-005	2.02783e-005
    77	1.45979e-007	2.01324e-005	2.02783e-005
    78	1.46009e-007	2.01323e-005	2.02783e-005
    79	1.4605e-007	2.01323e-005	2.02783e-005
    80	1.46123e-007	2.01323e-005	2.02784e-005
    81	1.46184e-007	2.01322e-005	2.02784e-005
    82	1.46068e-007	2.01322e-005	2.02783e-005
    83	1.46089e-007	2.01322e-005	2.02783e-005
    84	1.46107e-007	2.01321e-005	2.02782e-005
    85	1.46127e-007	2.01321e-005	2.02782e-005
    86	1.46147e-007	2.01321e-005	2.02782e-005
    87	1.46168e-007	2.0132e-005	2.02782e-005
    88	1.46188e-007	2.0132e-005	2.02782e-005
    89	1.46208e-007	2.0132e-005	2.02782e-005
    90	1.46227e-007	2.01319e-005	2.02782e-005
    91	1.46248e-007	2.01319e-005	2.02782e-005
    92	1.46264e-007	2.01319e-005	2.02781e-005
    93	1.46277e-007	2.01318e-005	2.02781e-005
    94	1.4629e-007	2.01318e-005	2.02781e-005
    95	1.46303e-007	2.01318e-005	2.02781e-005
    96	1.46316e-007	2.01318e-005	2.02781e-005
    97	1.46329e-007	2.01317e-005	2.0278e-005
    98	1.46343e-007	2.01317e-005	2.0278e-005
    99	1.46356e-007	2.01317e-005	2.0278e-005
   100	1.4637e-007	2.01316e-005	2.0278e-005
   101	1.46383e-007	2.01316e-005	2.0278e-005

Measurement: tr2
  step	tr2	FROM	TO
     1	4.44971e-007	6.13959e-005	6.18409e-005
     2	4.45329e-007	6.13953e-005	6.18406e-005
     3	4.45731e-007	6.13947e-005	6.18405e-005
     4	4.34004e-007	6.13943e-005	6.18283e-005
     5	4.37265e-007	6.13938e-005	6.18311e-005
     6	4.46647e-007	6.13936e-005	6.18403e-005
     7	4.47299e-007	6.13928e-005	6.18401e-005
     8	4.47937e-007	6.13924e-005	6.18403e-005
     9	4.32144e-007	6.13914e-005	6.18235e-005
    10	4.50261e-007	6.13914e-005	6.18417e-005
    11	4.42351e-007	6.1391e-005	6.18334e-005
    12	4.41792e-007	6.13906e-005	6.18324e-005
    13	4.39476e-007	6.13905e-005	6.18299e-005
    14	4.38299e-007	6.13896e-005	6.18279e-005
    15	4.40847e-007	6.13895e-005	6.18303e-005
    16	4.40742e-007	6.1389e-005	6.18297e-005
    17	4.42653e-007	6.13883e-005	6.18309e-005
    18	4.42948e-007	6.13878e-005	6.18308e-005
    19	4.42951e-007	6.13874e-005	6.18303e-005
    20	4.39303e-007	6.13874e-005	6.18267e-005
    21	4.38674e-007	6.13869e-005	6.18256e-005
    22	4.39436e-007	6.13866e-005	6.1826e-005
    23	4.37736e-007	6.13859e-005	6.18237e-005
    24	4.38107e-007	6.13858e-005	6.18239e-005
    25	4.46565e-007	6.13854e-005	6.1832e-005
    26	4.323e-007	6.13847e-005	6.1817e-005
    27	4.37619e-007	6.13846e-005	6.18222e-005
    28	4.35569e-007	6.13839e-005	6.18194e-005
    29	4.33412e-007	6.13834e-005	6.18168e-005
    30	4.31966e-007	6.1383e-005	6.18149e-005
    31	4.33943e-007	6.13826e-005	6.18165e-005
    32	4.35527e-007	6.13822e-005	6.18177e-005
    33	4.37417e-007	6.13818e-005	6.18192e-005
    34	4.39697e-007	6.13815e-005	6.18211e-005
    35	4.36809e-007	6.13817e-005	6.18185e-005
    36	4.33984e-007	6.1381e-005	6.1815e-005
    37	4.42626e-007	6.13806e-005	6.18232e-005
    38	4.47398e-007	6.13806e-005	6.1828e-005
    39	4.31945e-007	6.13804e-005	6.18124e-005
    40	4.40581e-007	6.13801e-005	6.18207e-005
    41	4.45863e-007	6.13806e-005	6.18265e-005
    42	4.41584e-007	6.13796e-005	6.18212e-005
    43	4.41948e-007	6.13796e-005	6.18216e-005
    44	4.40079e-007	6.13789e-005	6.1819e-005
    45	4.3722e-007	6.13784e-005	6.18156e-005
    46	4.3628e-007	6.13782e-005	6.18145e-005
    47	4.48194e-007	6.13777e-005	6.18259e-005
    48	4.44905e-007	6.13775e-005	6.18224e-005
    49	4.44283e-007	6.13774e-005	6.18217e-005
    50	4.44039e-007	6.13772e-005	6.18212e-005
    51	4.4382e-007	6.1377e-005	6.18208e-005
    52	4.4325e-007	6.13769e-005	6.18201e-005
    53	4.42544e-007	6.13767e-005	6.18193e-005
    54	4.41865e-007	6.13765e-005	6.18183e-005
    55	4.41993e-007	6.13767e-005	6.18187e-005
    56	4.44789e-007	6.13765e-005	6.18213e-005
    57	4.44332e-007	6.13758e-005	6.18201e-005
    58	4.34136e-007	6.13751e-005	6.18092e-005
    59	4.34649e-007	6.1375e-005	6.18096e-005
    60	4.33939e-007	6.13748e-005	6.18087e-005
    61	4.47861e-007	6.13754e-005	6.18232e-005
    62	4.48188e-007	6.13752e-005	6.18234e-005
    63	4.48528e-007	6.1375e-005	6.18235e-005
    64	4.48883e-007	6.13748e-005	6.18237e-005
    65	4.39464e-007	6.1374e-005	6.18134e-005
    66	4.34492e-007	6.13737e-005	6.18082e-005
    67	4.42853e-007	6.13742e-005	6.18171e-005
    68	4.35917e-007	6.13731e-005	6.18091e-005
    69	4.47768e-007	6.1374e-005	6.18218e-005
    70	4.37628e-007	6.1373e-005	6.18106e-005
    71	4.39033e-007	6.13728e-005	6.18118e-005
    72	4.44884e-007	6.13734e-005	6.18183e-005
    73	4.35976e-007	6.13723e-005	6.18083e-005
    74	4.39399e-007	6.13722e-005	6.18116e-005
    75	4.38414e-007	6.13719e-005	6.18104e-005
    76	4.44473e-007	6.13726e-005	6.18171e-005
    77	4.44395e-007	6.13724e-005	6.18168e-005
    78	4.37089e-007	6.13713e-005	6.18084e-005
    79	4.35844e-007	6.13712e-005	6.1807e-005
    80	4.36631e-007	6.1371e-005	6.18076e-005
    81	4.36847e-007	6.13708e-005	6.18077e-005
    82	4.42568e-007	6.13708e-005	6.18133e-005
    83	4.35468e-007	6.1371e-005	6.18064e-005
    84	4.36335e-007	6.137e-005	6.18063e-005
    85	4.38337e-007	6.13706e-005	6.18089e-005
    86	4.43375e-007	6.13704e-005	6.18138e-005
    87	4.37773e-007	6.137e-005	6.18077e-005
    88	4.43488e-007	6.137e-005	6.18135e-005
    89	4.36253e-007	6.13693e-005	6.18055e-005
    90	4.4718e-007	6.13708e-005	6.1818e-005
    91	4.43081e-007	6.13702e-005	6.18133e-005
    92	4.4249e-007	6.13694e-005	6.18119e-005
    93	4.41821e-007	6.13692e-005	6.1811e-005
    94	4.40896e-007	6.13691e-005	6.181e-005
    95	4.39997e-007	6.13689e-005	6.18089e-005
    96	4.39583e-007	6.13688e-005	6.18084e-005
    97	4.39216e-007	6.13687e-005	6.18079e-005
    98	4.38768e-007	6.13685e-005	6.18073e-005
    99	4.46395e-007	6.13684e-005	6.18148e-005
   100	4.39346e-007	6.13682e-005	6.18076e-005
   101	4.41248e-007	6.13685e-005	6.18098e-005

Measurement: vth
  step	v(n004)	at
     1	2.66435	2.01953e-005
     2	2.66424	2.01952e-005
     3	2.66413	2.01952e-005
     4	2.66402	2.01951e-005
     5	2.6639	2.0195e-005
     6	2.66379	2.0195e-005
     7	2.66369	2.01949e-005
     8	2.66358	2.01948e-005
     9	2.66347	2.01948e-005
    10	2.66337	2.01947e-005
    11	2.66326	2.01946e-005
    12	2.66316	2.01946e-005
    13	2.66332	2.01943e-005
    14	2.66319	2.01943e-005
    15	2.66307	2.01942e-005
    16	2.66295	2.01942e-005
    17	2.66282	2.01941e-005
    18	2.6627	2.01941e-005
    19	2.66258	2.0194e-005
    20	2.66246	2.0194e-005
    21	2.66234	2.01939e-005
    22	2.66222	2.01938e-005
    23	2.6621	2.01938e-005
    24	2.66198	2.01937e-005
    25	2.66186	2.01937e-005
    26	2.66175	2.01936e-005
    27	2.66163	2.01936e-005
    28	2.66151	2.01935e-005
    29	2.6614	2.01935e-005
    30	2.66128	2.01935e-005
    31	2.66117	2.01934e-005
    32	2.66105	2.01934e-005
    33	2.66094	2.01933e-005
    34	2.66083	2.01933e-005
    35	2.66071	2.01932e-005
    36	2.6606	2.01932e-005
    37	2.66049	2.01931e-005
    38	2.66038	2.01931e-005
    39	2.66012	2.01931e-005
    40	2.66	2.01931e-005
    41	2.65987	2.01931e-005
    42	2.65975	2.0193e-005
    43	2.65963	2.0193e-005
    44	2.65951	2.01929e-005
    45	2.65939	2.01929e-005
    46	2.65927	2.01929e-005
    47	2.65916	2.01928e-005
    48	2.65904	2.01928e-005
    49	2.65887	2.01928e-005
    50	2.65875	2.01927e-005
    51	2.65863	2.01927e-005
    52	2.65851	2.01927e-005
    53	2.6584	2.01926e-005
    54	2.65828	2.01926e-005
    55	2.65816	2.01926e-005
    56	2.65804	2.01925e-005
    57	2.65793	2.01925e-005
    58	2.65781	2.01925e-005
    59	2.65769	2.01924e-005
    60	2.65758	2.01924e-005
    61	2.65746	2.01924e-005
    62	2.65735	2.01923e-005
    63	2.65723	2.01923e-005
    64	2.65712	2.01922e-005
    65	2.657	2.01922e-005
    66	2.65689	2.01922e-005
    67	2.65677	2.01922e-005
    68	2.65666	2.01921e-005
    69	2.65654	2.01921e-005
    70	2.65643	2.01921e-005
    71	2.65632	2.0192e-005
    72	2.6562	2.0192e-005
    73	2.65609	2.0192e-005
    74	2.65598	2.01919e-005
    75	2.65587	2.01919e-005
    76	2.65575	2.01919e-005
    77	2.65565	2.01918e-005
    78	2.65553	2.01918e-005
    79	2.65542	2.01918e-005
    80	2.65531	2.01917e-005
    81	2.6552	2.01917e-005
    82	2.6551	2.01916e-005
    83	2.65499	2.01915e-005
    84	2.65488	2.01915e-005
    85	2.65477	2.01915e-005
    86	2.65466	2.01914e-005
    87	2.65455	2.01914e-005
    88	2.65444	2.01914e-005
    89	2.65433	2.01913e-005
    90	2.65422	2.01913e-005
    91	2.65411	2.01913e-005
    92	2.65401	2.01912e-005
    93	2.6539	2.01912e-005
    94	2.65379	2.01911e-005
    95	2.65369	2.01911e-005
    96	2.65358	2.01911e-005
    97	2.65348	2.0191e-005
    98	2.65337	2.0191e-005
    99	2.65326	2.0191e-005
   100	2.65316	2.01909e-005
   101	2.65305	2.01909e-005


Date: Tue Mar 22 14:31:26 2022
Total elapsed time: 1.345 seconds.

tnom = 27
temp = 27
method = modified trap
totiter = 2702
traniter = 2673
tranpoints = 1142
accept = 1111
rejected = 31
matrix size = 11
fillins = 0
solver = Normal
Matrix Compiler1: 674 bytes object code size  0.1/0.1/[0.1]
Matrix Compiler2: off  [0.1]/0.1/0.1

