Circuit: * C:\Users\user\Documents\LTspiceXVII\file\Montecarlo\monte_SiC.asc

Direct Newton iteration for .op point succeeded.
.step tol1=0
.step tol1=0.01
.step tol1=0.02
.step tol1=0.03
.step tol1=0.04
.step tol1=0.05
.step tol1=0.06
.step tol1=0.07
.step tol1=0.08
.step tol1=0.09
.step tol1=0.1
.step tol1=0.11
.step tol1=0.12
.step tol1=0.13
.step tol1=0.14
.step tol1=0.15
.step tol1=0.16
.step tol1=0.17
.step tol1=0.18
.step tol1=0.19
.step tol1=0.2
.step tol1=0.21
.step tol1=0.22
.step tol1=0.23
.step tol1=0.24
.step tol1=0.25
.step tol1=0.26
.step tol1=0.27
.step tol1=0.28
.step tol1=0.29
.step tol1=0.3
.step tol1=0.31
.step tol1=0.32
.step tol1=0.33
.step tol1=0.34
.step tol1=0.35
.step tol1=0.36
.step tol1=0.37
.step tol1=0.38
.step tol1=0.39
.step tol1=0.4
.step tol1=0.41
.step tol1=0.42
.step tol1=0.43
.step tol1=0.44
.step tol1=0.45
.step tol1=0.46
.step tol1=0.47
.step tol1=0.48
.step tol1=0.49
.step tol1=0.5
.step tol1=0.51
.step tol1=0.52
.step tol1=0.53
.step tol1=0.54
.step tol1=0.55
.step tol1=0.56
.step tol1=0.57
.step tol1=0.58
.step tol1=0.59
.step tol1=0.6
.step tol1=0.61
.step tol1=0.62
.step tol1=0.63
.step tol1=0.64
.step tol1=0.65
.step tol1=0.66
.step tol1=0.67
.step tol1=0.68
.step tol1=0.69
.step tol1=0.7
.step tol1=0.71
.step tol1=0.72
.step tol1=0.73
.step tol1=0.74
.step tol1=0.75
.step tol1=0.76
.step tol1=0.77
.step tol1=0.78
.step tol1=0.79
.step tol1=0.8
.step tol1=0.81
.step tol1=0.82
.step tol1=0.83
.step tol1=0.84
.step tol1=0.85
.step tol1=0.86
.step tol1=0.87
.step tol1=0.88
.step tol1=0.89
.step tol1=0.9
.step tol1=0.91
.step tol1=0.92
.step tol1=0.93
.step tol1=0.94
.step tol1=0.95
.step tol1=0.96
.step tol1=0.97
.step tol1=0.98
.step tol1=0.99
.step tol1=1


Measurement: imax
  step	MAX(-i(v1))	FROM	TO
     1	9.80646	0	0.0001
     2	9.80659	0	0.0001
     3	9.80672	0	0.0001
     4	9.80685	0	0.0001
     5	9.80697	0	0.0001
     6	9.8071	0	0.0001
     7	9.80721	0	0.0001
     8	9.80733	0	0.0001
     9	9.80745	0	0.0001
    10	9.80756	0	0.0001
    11	9.80767	0	0.0001
    12	9.80778	0	0.0001
    13	9.80789	0	0.0001
    14	9.80796	0	0.0001
    15	9.80806	0	0.0001
    16	9.80819	0	0.0001
    17	9.80829	0	0.0001
    18	9.80839	0	0.0001
    19	9.80848	0	0.0001
    20	9.80855	0	0.0001
    21	9.80864	0	0.0001
    22	9.80873	0	0.0001
    23	9.80882	0	0.0001
    24	9.80891	0	0.0001
    25	9.809	0	0.0001
    26	9.80912	0	0.0001
    27	9.80917	0	0.0001
    28	9.80928	0	0.0001
    29	9.80933	0	0.0001
    30	9.80941	0	0.0001
    31	9.80949	0	0.0001
    32	9.80957	0	0.0001
    33	9.80968	0	0.0001
    34	9.80972	0	0.0001
    35	9.80983	0	0.0001
    36	9.8099	0	0.0001
    37	9.80997	0	0.0001
    38	9.81005	0	0.0001
    39	9.81012	0	0.0001
    40	9.81018	0	0.0001
    41	9.81025	0	0.0001
    42	9.81032	0	0.0001
    43	9.81039	0	0.0001
    44	9.81045	0	0.0001
    45	9.81051	0	0.0001
    46	9.81058	0	0.0001
    47	9.81064	0	0.0001
    48	9.81068	0	0.0001
    49	9.81073	0	0.0001
    50	9.81079	0	0.0001
    51	9.81085	0	0.0001
    52	9.8109	0	0.0001
    53	9.81096	0	0.0001
    54	9.81102	0	0.0001
    55	9.81111	0	0.0001
    56	9.81117	0	0.0001
    57	9.81118	0	0.0001
    58	9.81127	0	0.0001
    59	9.81131	0	0.0001
    60	9.81135	0	0.0001
    61	9.8114	0	0.0001
    62	9.81145	0	0.0001
    63	9.8115	0	0.0001
    64	9.81155	0	0.0001
    65	9.8116	0	0.0001
    66	9.81165	0	0.0001
    67	9.8117	0	0.0001
    68	9.81174	0	0.0001
    69	9.81179	0	0.0001
    70	9.81184	0	0.0001
    71	9.81188	0	0.0001
    72	9.81193	0	0.0001
    73	9.81197	0	0.0001
    74	9.81202	0	0.0001
    75	9.81206	0	0.0001
    76	9.81211	0	0.0001
    77	9.81215	0	0.0001
    78	9.81219	0	0.0001
    79	9.81223	0	0.0001
    80	9.81227	0	0.0001
    81	9.81231	0	0.0001
    82	9.81236	0	0.0001
    83	9.8124	0	0.0001
    84	9.81244	0	0.0001
    85	9.81247	0	0.0001
    86	9.81251	0	0.0001
    87	9.81255	0	0.0001
    88	9.81259	0	0.0001
    89	9.81263	0	0.0001
    90	9.81266	0	0.0001
    91	9.8127	0	0.0001
    92	9.81274	0	0.0001
    93	9.81277	0	0.0001
    94	9.81281	0	0.0001
    95	9.81284	0	0.0001
    96	9.81288	0	0.0001
    97	9.81291	0	0.0001
    98	9.81295	0	0.0001
    99	9.81298	0	0.0001
   100	9.81301	0	0.0001
   101	9.81305	0	0.0001

Measurement: tr1
  step	tr1	FROM	TO
     1	1.8838e-007	2.01446e-005	2.0333e-005
     2	1.88094e-007	2.01445e-005	2.03326e-005
     3	1.87812e-007	2.01445e-005	2.03323e-005
     4	1.87534e-007	2.01444e-005	2.03319e-005
     5	1.87261e-007	2.01444e-005	2.03316e-005
     6	1.86991e-007	2.01443e-005	2.03313e-005
     7	1.86751e-007	2.01442e-005	2.0331e-005
     8	1.86489e-007	2.01442e-005	2.03307e-005
     9	1.86231e-007	2.01441e-005	2.03304e-005
    10	1.85977e-007	2.01441e-005	2.03301e-005
    11	1.85725e-007	2.0144e-005	2.03298e-005
    12	1.85478e-007	2.0144e-005	2.03295e-005
    13	1.85233e-007	2.01439e-005	2.03292e-005
    14	1.8499e-007	2.01439e-005	2.03289e-005
    15	1.84752e-007	2.01438e-005	2.03286e-005
    16	1.84519e-007	2.01438e-005	2.03283e-005
    17	1.84287e-007	2.01437e-005	2.0328e-005
    18	1.84058e-007	2.01437e-005	2.03277e-005
    19	1.83831e-007	2.01436e-005	2.03275e-005
    20	1.83606e-007	2.01436e-005	2.03272e-005
    21	1.83386e-007	2.01435e-005	2.03269e-005
    22	1.83168e-007	2.01435e-005	2.03267e-005
    23	1.82952e-007	2.01434e-005	2.03264e-005
    24	1.82739e-007	2.01434e-005	2.03261e-005
    25	1.82529e-007	2.01434e-005	2.03259e-005
    26	1.82342e-007	2.01433e-005	2.03257e-005
    27	1.822e-007	2.01433e-005	2.03255e-005
    28	1.82066e-007	2.01432e-005	2.03253e-005
    29	1.81937e-007	2.01432e-005	2.03251e-005
    30	1.81816e-007	2.01432e-005	2.0325e-005
    31	1.81658e-007	2.01431e-005	2.03248e-005
    32	1.81476e-007	2.01431e-005	2.03245e-005
    33	1.81298e-007	2.0143e-005	2.03243e-005
    34	1.8112e-007	2.0143e-005	2.03241e-005
    35	1.80946e-007	2.0143e-005	2.03239e-005
    36	1.80773e-007	2.01429e-005	2.03237e-005
    37	1.80602e-007	2.01429e-005	2.03235e-005
    38	1.80433e-007	2.01428e-005	2.03233e-005
    39	1.80266e-007	2.01428e-005	2.03231e-005
    40	1.80101e-007	2.01428e-005	2.03229e-005
    41	1.79938e-007	2.01427e-005	2.03227e-005
    42	1.79776e-007	2.01427e-005	2.03225e-005
    43	1.79617e-007	2.01427e-005	2.03223e-005
    44	1.79459e-007	2.01426e-005	2.03221e-005
    45	1.79303e-007	2.01426e-005	2.03219e-005
    46	1.79148e-007	2.01426e-005	2.03217e-005
    47	1.78996e-007	2.01425e-005	2.03215e-005
    48	1.78844e-007	2.01425e-005	2.03213e-005
    49	1.78694e-007	2.01424e-005	2.03211e-005
    50	1.78546e-007	2.01424e-005	2.0321e-005
    51	1.784e-007	2.01424e-005	2.03208e-005
    52	1.78256e-007	2.01424e-005	2.03206e-005
    53	1.78113e-007	2.01423e-005	2.03204e-005
    54	1.77971e-007	2.01423e-005	2.03203e-005
    55	1.77832e-007	2.01423e-005	2.03201e-005
    56	1.77694e-007	2.01422e-005	2.03199e-005
    57	1.77555e-007	2.01422e-005	2.03197e-005
    58	1.77421e-007	2.01422e-005	2.03196e-005
    59	1.77286e-007	2.01421e-005	2.03194e-005
    60	1.77152e-007	2.01421e-005	2.03193e-005
    61	1.77021e-007	2.01421e-005	2.03191e-005
    62	1.7689e-007	2.0142e-005	2.03189e-005
    63	1.76761e-007	2.0142e-005	2.03188e-005
    64	1.76633e-007	2.0142e-005	2.03186e-005
    65	1.76507e-007	2.0142e-005	2.03185e-005
    66	1.76382e-007	2.01419e-005	2.03183e-005
    67	1.76258e-007	2.01419e-005	2.03182e-005
    68	1.76135e-007	2.01419e-005	2.0318e-005
    69	1.76013e-007	2.01418e-005	2.03179e-005
    70	1.75893e-007	2.01418e-005	2.03177e-005
    71	1.75773e-007	2.01418e-005	2.03176e-005
    72	1.75655e-007	2.01418e-005	2.03174e-005
    73	1.75538e-007	2.01417e-005	2.03173e-005
    74	1.75422e-007	2.01417e-005	2.03171e-005
    75	1.75307e-007	2.01417e-005	2.0317e-005
    76	1.75194e-007	2.01417e-005	2.03169e-005
    77	1.75081e-007	2.01416e-005	2.03167e-005
    78	1.74959e-007	2.01416e-005	2.03166e-005
    79	1.75058e-007	2.01416e-005	2.03166e-005
    80	1.74951e-007	2.01416e-005	2.03165e-005
    81	1.74844e-007	2.01415e-005	2.03164e-005
    82	1.74739e-007	2.01415e-005	2.03162e-005
    83	1.74634e-007	2.01415e-005	2.03161e-005
    84	1.74531e-007	2.01415e-005	2.0316e-005
    85	1.74428e-007	2.01414e-005	2.03159e-005
    86	1.74327e-007	2.01414e-005	2.03157e-005
    87	1.74226e-007	2.01414e-005	2.03156e-005
    88	1.74126e-007	2.01414e-005	2.03155e-005
    89	1.74027e-007	2.01413e-005	2.03154e-005
    90	1.7392e-007	2.01413e-005	2.03152e-005
    91	1.73823e-007	2.01413e-005	2.03151e-005
    92	1.73727e-007	2.01413e-005	2.0315e-005
    93	1.73631e-007	2.01412e-005	2.03149e-005
    94	1.73537e-007	2.01412e-005	2.03148e-005
    95	1.73443e-007	2.01412e-005	2.03146e-005
    96	1.73351e-007	2.01412e-005	2.03145e-005
    97	1.73259e-007	2.01412e-005	2.03144e-005
    98	1.73168e-007	2.01411e-005	2.03143e-005
    99	1.73077e-007	2.01411e-005	2.03142e-005
   100	1.72988e-007	2.01411e-005	2.03141e-005
   101	1.72899e-007	2.01411e-005	2.0314e-005

Measurement: tr2
  step	tr2	FROM	TO
     1	4.24943e-007	6.12087e-005	6.16336e-005
     2	4.16428e-007	6.12096e-005	6.1626e-005
     3	4.17903e-007	6.12105e-005	6.16284e-005
     4	4.18556e-007	6.12115e-005	6.16301e-005
     5	4.1818e-007	6.12124e-005	6.16306e-005
     6	4.17411e-007	6.12133e-005	6.16307e-005
     7	4.18181e-007	6.12142e-005	6.16324e-005
     8	4.20767e-007	6.12152e-005	6.1636e-005
     9	4.2515e-007	6.12163e-005	6.16414e-005
    10	4.18964e-007	6.1217e-005	6.1636e-005
    11	4.21139e-007	6.1218e-005	6.16391e-005
    12	4.20956e-007	6.12188e-005	6.16397e-005
    13	4.21896e-007	6.12194e-005	6.16413e-005
    14	4.22047e-007	6.12206e-005	6.16427e-005
    15	4.21219e-007	6.12217e-005	6.16429e-005
    16	4.23302e-007	6.12223e-005	6.16456e-005
    17	4.19407e-007	6.12232e-005	6.16426e-005
    18	4.26733e-007	6.12239e-005	6.16506e-005
    19	4.18658e-007	6.12247e-005	6.16433e-005
    20	4.20933e-007	6.12254e-005	6.16463e-005
    21	4.21669e-007	6.12262e-005	6.16479e-005
    22	4.16521e-007	6.12267e-005	6.16432e-005
    23	4.20139e-007	6.12277e-005	6.16479e-005
    24	4.22035e-007	6.12283e-005	6.16503e-005
    25	4.13221e-007	6.12287e-005	6.16419e-005
    26	4.22112e-007	6.12298e-005	6.16519e-005
    27	4.22149e-007	6.12304e-005	6.16525e-005
    28	4.24807e-007	6.12312e-005	6.1656e-005
    29	4.22203e-007	6.12318e-005	6.1654e-005
    30	4.18888e-007	6.12324e-005	6.16513e-005
    31	4.22473e-007	6.12332e-005	6.16556e-005
    32	4.22201e-007	6.12337e-005	6.16559e-005
    33	4.27618e-007	6.12344e-005	6.1662e-005
    34	4.25196e-007	6.12349e-005	6.16601e-005
    35	4.27205e-007	6.12354e-005	6.16626e-005
    36	4.16506e-007	6.12365e-005	6.1653e-005
    37	4.12783e-007	6.12369e-005	6.16497e-005
    38	4.27495e-007	6.12374e-005	6.16649e-005
    39	4.18882e-007	6.12383e-005	6.16572e-005
    40	4.22815e-007	6.12388e-005	6.16616e-005
    41	4.1842e-007	6.12395e-005	6.16579e-005
    42	4.22858e-007	6.12398e-005	6.16627e-005
    43	4.21676e-007	6.12404e-005	6.16621e-005
    44	4.28149e-007	6.12411e-005	6.16692e-005
    45	4.22329e-007	6.12416e-005	6.16639e-005
    46	4.27801e-007	6.12424e-005	6.16702e-005
    47	4.22328e-007	6.12428e-005	6.16651e-005
    48	4.28428e-007	6.12436e-005	6.1672e-005
    49	4.18921e-007	6.1244e-005	6.16629e-005
    50	4.23493e-007	6.12446e-005	6.16681e-005
    51	4.143e-007	6.12452e-005	6.16595e-005
    52	4.16048e-007	6.12457e-005	6.16617e-005
    53	4.21057e-007	6.12461e-005	6.16671e-005
    54	4.22785e-007	6.12467e-005	6.16695e-005
    55	4.28716e-007	6.12473e-005	6.1676e-005
    56	4.23117e-007	6.12477e-005	6.16708e-005
    57	4.22317e-007	6.12483e-005	6.16706e-005
    58	4.2214e-007	6.12488e-005	6.16709e-005
    59	4.18369e-007	6.12494e-005	6.16678e-005
    60	4.20903e-007	6.12493e-005	6.16702e-005
    61	4.20678e-007	6.12498e-005	6.16705e-005
    62	4.20519e-007	6.12503e-005	6.16708e-005
    63	4.20415e-007	6.12508e-005	6.16712e-005
    64	4.20359e-007	6.12513e-005	6.16716e-005
    65	4.20344e-007	6.12518e-005	6.16721e-005
    66	4.20365e-007	6.12523e-005	6.16726e-005
    67	4.20418e-007	6.12527e-005	6.16731e-005
    68	4.20469e-007	6.12532e-005	6.16737e-005
    69	4.25901e-007	6.12536e-005	6.16795e-005
    70	4.26003e-007	6.12541e-005	6.16801e-005
    71	4.26141e-007	6.12546e-005	6.16807e-005
    72	4.14742e-007	6.12555e-005	6.16702e-005
    73	4.15064e-007	6.12559e-005	6.1671e-005
    74	4.2376e-007	6.1256e-005	6.16798e-005
    75	4.20664e-007	6.12566e-005	6.16773e-005
    76	4.2142e-007	6.12571e-005	6.16785e-005
    77	4.21395e-007	6.12575e-005	6.16789e-005
    78	4.21166e-007	6.1258e-005	6.16791e-005
    79	4.20798e-007	6.12584e-005	6.16792e-005
    80	4.18902e-007	6.1259e-005	6.16779e-005
    81	4.19242e-007	6.12594e-005	6.16786e-005
    82	4.19208e-007	6.12598e-005	6.1679e-005
    83	4.19071e-007	6.12602e-005	6.16792e-005
    84	4.18837e-007	6.12606e-005	6.16794e-005
    85	4.18496e-007	6.1261e-005	6.16795e-005
    86	4.28495e-007	6.12611e-005	6.16896e-005
    87	4.26238e-007	6.12616e-005	6.16879e-005
    88	4.19742e-007	6.12622e-005	6.16819e-005
    89	4.16744e-007	6.12627e-005	6.16795e-005
    90	4.14915e-007	6.1263e-005	6.16779e-005
    91	4.18748e-007	6.12633e-005	6.1682e-005
    92	4.21396e-007	6.12636e-005	6.1685e-005
    93	4.23796e-007	6.1264e-005	6.16878e-005
    94	4.24607e-007	6.12644e-005	6.1689e-005
    95	4.31504e-007	6.12647e-005	6.16962e-005
    96	4.31144e-007	6.12651e-005	6.16963e-005
    97	4.30878e-007	6.12655e-005	6.16964e-005
    98	4.29475e-007	6.12659e-005	6.16953e-005
    99	4.29235e-007	6.12662e-005	6.16955e-005
   100	4.29301e-007	6.12666e-005	6.16959e-005
   101	4.29856e-007	6.1267e-005	6.16968e-005

Measurement: vth
  step	v(n004)	at
     1	1.88283	2.01041e-005
     2	1.88259	2.01041e-005
     3	1.88236	2.01041e-005
     4	1.88214	2.01041e-005
     5	1.88192	2.01041e-005
     6	1.88171	2.01041e-005
     7	1.88149	2.01041e-005
     8	1.88129	2.01041e-005
     9	1.88108	2.01041e-005
    10	1.88088	2.01041e-005
    11	1.88069	2.0104e-005
    12	1.88049	2.0104e-005
    13	1.8803	2.0104e-005
    14	1.88012	2.0104e-005
    15	1.87993	2.0104e-005
    16	1.87975	2.0104e-005
    17	1.87958	2.0104e-005
    18	1.8794	2.0104e-005
    19	1.87923	2.0104e-005
    20	1.87906	2.0104e-005
    21	1.8789	2.0104e-005
    22	1.87873	2.0104e-005
    23	1.87857	2.0104e-005
    24	1.87841	2.0104e-005
    25	1.87826	2.0104e-005
    26	1.87811	2.0104e-005
    27	1.87796	2.0104e-005
    28	1.87781	2.01039e-005
    29	1.87766	2.01039e-005
    30	1.87752	2.01039e-005
    31	1.87738	2.01039e-005
    32	1.87724	2.01039e-005
    33	1.8771	2.01039e-005
    34	1.87696	2.01039e-005
    35	1.87683	2.01039e-005
    36	1.8767	2.01039e-005
    37	1.87657	2.01039e-005
    38	1.87644	2.01039e-005
    39	1.87632	2.01039e-005
    40	1.87619	2.01039e-005
    41	1.87607	2.01039e-005
    42	1.87595	2.01039e-005
    43	1.87583	2.01039e-005
    44	1.87571	2.01039e-005
    45	1.8756	2.01039e-005
    46	1.87548	2.01039e-005
    47	1.87537	2.01039e-005
    48	1.87526	2.01039e-005
    49	1.87515	2.01039e-005
    50	1.87504	2.01039e-005
    51	1.87493	2.01039e-005
    52	1.87483	2.01038e-005
    53	1.87472	2.01038e-005
    54	1.87462	2.01038e-005
    55	1.87452	2.01038e-005
    56	1.87442	2.01038e-005
    57	1.87432	2.01038e-005
    58	1.87422	2.01038e-005
    59	1.87413	2.01038e-005
    60	1.87403	2.01038e-005
    61	1.87394	2.01038e-005
    62	1.87384	2.01038e-005
    63	1.87375	2.01038e-005
    64	1.87366	2.01038e-005
    65	1.87357	2.01038e-005
    66	1.87348	2.01038e-005
    67	1.87339	2.01038e-005
    68	1.87331	2.01038e-005
    69	1.87322	2.01038e-005
    70	1.87314	2.01038e-005
    71	1.87305	2.01038e-005
    72	1.87297	2.01038e-005
    73	1.87289	2.01038e-005
    74	1.87281	2.01038e-005
    75	1.87273	2.01038e-005
    76	1.87265	2.01038e-005
    77	1.87257	2.01038e-005
    78	1.87249	2.01038e-005
    79	1.87242	2.01038e-005
    80	1.87234	2.01038e-005
    81	1.87227	2.01038e-005
    82	1.87219	2.01038e-005
    83	1.87212	2.01038e-005
    84	1.87204	2.01038e-005
    85	1.87197	2.01038e-005
    86	1.8719	2.01037e-005
    87	1.87183	2.01037e-005
    88	1.87176	2.01037e-005
    89	1.87169	2.01037e-005
    90	1.87162	2.01037e-005
    91	1.87156	2.01037e-005
    92	1.87149	2.01037e-005
    93	1.87142	2.01037e-005
    94	1.87136	2.01037e-005
    95	1.87129	2.01037e-005
    96	1.87123	2.01037e-005
    97	1.87117	2.01037e-005
    98	1.8711	2.01037e-005
    99	1.87104	2.01037e-005
   100	1.87098	2.01037e-005
   101	1.87092	2.01037e-005


Date: Wed Mar 23 09:34:27 2022
Total elapsed time: 1.486 seconds.

tnom = 27
temp = 27
method = modified trap
totiter = 2323
traniter = 2293
tranpoints = 1114
accept = 1090
rejected = 24
matrix size = 11
fillins = 0
solver = Normal
Matrix Compiler1: 674 bytes object code size  0.1/0.1/[0.1]
Matrix Compiler2: off  [0.1]/0.1/0.1

