Circuit: * C:\Users\user\Documents\LTspiceXVII\file\Montecarlo\monte_SiC.asc

Direct Newton iteration for .op point succeeded.
.step tol1=0
.step tol1=0.01
.step tol1=0.02
.step tol1=0.03
.step tol1=0.04
.step tol1=0.05
.step tol1=0.06
.step tol1=0.07
.step tol1=0.08
.step tol1=0.09
.step tol1=0.1
.step tol1=0.11
.step tol1=0.12
.step tol1=0.13
.step tol1=0.14
.step tol1=0.15
.step tol1=0.16
.step tol1=0.17
.step tol1=0.18
.step tol1=0.19
.step tol1=0.2
.step tol1=0.21
.step tol1=0.22
.step tol1=0.23
.step tol1=0.24
.step tol1=0.25
.step tol1=0.26
.step tol1=0.27
.step tol1=0.28
.step tol1=0.29
.step tol1=0.3
.step tol1=0.31
.step tol1=0.32
.step tol1=0.33
.step tol1=0.34
.step tol1=0.35
.step tol1=0.36
.step tol1=0.37
.step tol1=0.38
.step tol1=0.39
.step tol1=0.4
.step tol1=0.41
.step tol1=0.42
.step tol1=0.43
.step tol1=0.44
.step tol1=0.45
.step tol1=0.46
.step tol1=0.47
.step tol1=0.48
.step tol1=0.49
.step tol1=0.5
.step tol1=0.51
.step tol1=0.52
.step tol1=0.53
.step tol1=0.54
.step tol1=0.55
.step tol1=0.56
.step tol1=0.57
.step tol1=0.58
.step tol1=0.59
.step tol1=0.6
.step tol1=0.61
.step tol1=0.62
.step tol1=0.63
.step tol1=0.64
.step tol1=0.65
.step tol1=0.66
.step tol1=0.67
.step tol1=0.68
.step tol1=0.69
.step tol1=0.7
.step tol1=0.71
.step tol1=0.72
.step tol1=0.73
.step tol1=0.74
.step tol1=0.75
.step tol1=0.76
.step tol1=0.77
.step tol1=0.78
.step tol1=0.79
.step tol1=0.8
.step tol1=0.81
.step tol1=0.82
.step tol1=0.83
.step tol1=0.84
.step tol1=0.85
.step tol1=0.86
.step tol1=0.87
.step tol1=0.88
.step tol1=0.89
.step tol1=0.9
.step tol1=0.91
.step tol1=0.92
.step tol1=0.93
.step tol1=0.94
.step tol1=0.95
.step tol1=0.96
.step tol1=0.97
.step tol1=0.98
.step tol1=0.99
.step tol1=1


Measurement: imax
  step	MAX(-i(v1))	FROM	TO
     1	0.998033	0	0.0001
     2	0.998033	0	0.0001
     3	0.998033	0	0.0001
     4	0.998033	0	0.0001
     5	0.998033	0	0.0001
     6	0.998033	0	0.0001
     7	0.998033	0	0.0001
     8	0.998033	0	0.0001
     9	0.998033	0	0.0001
    10	0.998033	0	0.0001
    11	0.998033	0	0.0001
    12	0.998033	0	0.0001
    13	0.998033	0	0.0001
    14	0.998034	0	0.0001
    15	0.998034	0	0.0001
    16	0.998033	0	0.0001
    17	0.998033	0	0.0001
    18	0.998034	0	0.0001
    19	0.998034	0	0.0001
    20	0.998034	0	0.0001
    21	0.998034	0	0.0001
    22	0.998034	0	0.0001
    23	0.998034	0	0.0001
    24	0.998034	0	0.0001
    25	0.998034	0	0.0001
    26	0.998033	0	0.0001
    27	0.998034	0	0.0001
    28	0.998034	0	0.0001
    29	0.998034	0	0.0001
    30	0.998034	0	0.0001
    31	0.998034	0	0.0001
    32	0.998034	0	0.0001
    33	0.998034	0	0.0001
    34	0.998035	0	0.0001
    35	0.998034	0	0.0001
    36	0.998035	0	0.0001
    37	0.998036	0	0.0001
    38	0.998036	0	0.0001
    39	0.998034	0	0.0001
    40	0.998034	0	0.0001
    41	0.998036	0	0.0001
    42	0.998036	0	0.0001
    43	0.998036	0	0.0001
    44	0.998034	0	0.0001
    45	0.998033	0	0.0001
    46	0.998033	0	0.0001
    47	0.998033	0	0.0001
    48	0.998033	0	0.0001
    49	0.998033	0	0.0001
    50	0.998036	0	0.0001
    51	0.998034	0	0.0001
    52	0.998034	0	0.0001
    53	0.998036	0	0.0001
    54	0.998035	0	0.0001
    55	0.998035	0	0.0001
    56	0.998035	0	0.0001
    57	0.998035	0	0.0001
    58	0.998035	0	0.0001
    59	0.998035	0	0.0001
    60	0.998035	0	0.0001
    61	0.998034	0	0.0001
    62	0.998034	0	0.0001
    63	0.998036	0	0.0001
    64	0.998034	0	0.0001
    65	0.998035	0	0.0001
    66	0.998035	0	0.0001
    67	0.998035	0	0.0001
    68	0.998035	0	0.0001
    69	0.998035	0	0.0001
    70	0.998035	0	0.0001
    71	0.998035	0	0.0001
    72	0.998035	0	0.0001
    73	0.998035	0	0.0001
    74	0.998035	0	0.0001
    75	0.998034	0	0.0001
    76	0.998034	0	0.0001
    77	0.998034	0	0.0001
    78	0.998034	0	0.0001
    79	0.998034	0	0.0001
    80	0.998034	0	0.0001
    81	0.998034	0	0.0001
    82	0.998034	0	0.0001
    83	0.998034	0	0.0001
    84	0.998034	0	0.0001
    85	0.998034	0	0.0001
    86	0.998034	0	0.0001
    87	0.998034	0	0.0001
    88	0.998034	0	0.0001
    89	0.998034	0	0.0001
    90	0.998034	0	0.0001
    91	0.998034	0	0.0001
    92	0.998034	0	0.0001
    93	0.998034	0	0.0001
    94	0.998034	0	0.0001
    95	0.998034	0	0.0001
    96	0.998034	0	0.0001
    97	0.998034	0	0.0001
    98	0.998035	0	0.0001
    99	0.998035	0	0.0001
   100	0.998034	0	0.0001
   101	0.998034	0	0.0001

Measurement: tr1
  step	tr1	FROM	TO
     1	1.46403e-007	2.01363e-005	2.02827e-005
     2	1.46389e-007	2.01363e-005	2.02827e-005
     3	1.46374e-007	2.01363e-005	2.02826e-005
     4	1.4636e-007	2.01363e-005	2.02826e-005
     5	1.46345e-007	2.01363e-005	2.02826e-005
     6	1.46331e-007	2.01363e-005	2.02826e-005
     7	1.46316e-007	2.01363e-005	2.02826e-005
     8	1.46302e-007	2.01363e-005	2.02826e-005
     9	1.46288e-007	2.01363e-005	2.02825e-005
    10	1.46274e-007	2.01363e-005	2.02825e-005
    11	1.46259e-007	2.01362e-005	2.02825e-005
    12	1.46245e-007	2.01362e-005	2.02825e-005
    13	1.46231e-007	2.01362e-005	2.02825e-005
    14	1.46217e-007	2.01362e-005	2.02825e-005
    15	1.46203e-007	2.01362e-005	2.02824e-005
    16	1.46189e-007	2.01362e-005	2.02824e-005
    17	1.46176e-007	2.01362e-005	2.02824e-005
    18	1.46162e-007	2.01362e-005	2.02824e-005
    19	1.46149e-007	2.01362e-005	2.02824e-005
    20	1.46136e-007	2.01362e-005	2.02824e-005
    21	1.46122e-007	2.01362e-005	2.02823e-005
    22	1.46109e-007	2.01362e-005	2.02823e-005
    23	1.46096e-007	2.01362e-005	2.02823e-005
    24	1.46084e-007	2.01362e-005	2.02823e-005
    25	1.46071e-007	2.01362e-005	2.02823e-005
    26	1.46058e-007	2.01362e-005	2.02823e-005
    27	1.46046e-007	2.01362e-005	2.02822e-005
    28	1.46034e-007	2.01362e-005	2.02822e-005
    29	1.46022e-007	2.01362e-005	2.02822e-005
    30	1.4601e-007	2.01362e-005	2.02822e-005
    31	1.45998e-007	2.01362e-005	2.02822e-005
    32	1.45986e-007	2.01362e-005	2.02822e-005
    33	1.45975e-007	2.01362e-005	2.02822e-005
    34	1.45964e-007	2.01362e-005	2.02821e-005
    35	1.45952e-007	2.01362e-005	2.02821e-005
    36	1.45942e-007	2.01362e-005	2.02821e-005
    37	1.45931e-007	2.01362e-005	2.02821e-005
    38	1.4592e-007	2.01362e-005	2.02821e-005
    39	1.45909e-007	2.01362e-005	2.02821e-005
    40	1.459e-007	2.01362e-005	2.02821e-005
    41	1.45893e-007	2.01362e-005	2.02821e-005
    42	1.45885e-007	2.01362e-005	2.0282e-005
    43	1.45877e-007	2.01362e-005	2.0282e-005
    44	1.45868e-007	2.01362e-005	2.0282e-005
    45	1.45859e-007	2.01361e-005	2.0282e-005
    46	1.45852e-007	2.01361e-005	2.0282e-005
    47	1.45852e-007	2.01361e-005	2.0282e-005
    48	1.45851e-007	2.01361e-005	2.0282e-005
    49	1.45851e-007	2.01361e-005	2.0282e-005
    50	1.45852e-007	2.01361e-005	2.0282e-005
    51	1.4585e-007	2.01361e-005	2.0282e-005
    52	1.4585e-007	2.01361e-005	2.0282e-005
    53	1.4585e-007	2.01361e-005	2.0282e-005
    54	1.45849e-007	2.01361e-005	2.0282e-005
    55	1.45849e-007	2.01361e-005	2.0282e-005
    56	1.45848e-007	2.01361e-005	2.0282e-005
    57	1.45847e-007	2.01361e-005	2.0282e-005
    58	1.45846e-007	2.01361e-005	2.0282e-005
    59	1.45845e-007	2.01361e-005	2.02819e-005
    60	1.45845e-007	2.01361e-005	2.02819e-005
    61	1.45894e-007	2.01361e-005	2.0282e-005
    62	1.45894e-007	2.01361e-005	2.0282e-005
    63	1.45894e-007	2.01361e-005	2.0282e-005
    64	1.45894e-007	2.01361e-005	2.0282e-005
    65	1.45894e-007	2.01361e-005	2.0282e-005
    66	1.45894e-007	2.01361e-005	2.0282e-005
    67	1.45894e-007	2.01361e-005	2.0282e-005
    68	1.45894e-007	2.01361e-005	2.0282e-005
    69	1.45893e-007	2.01361e-005	2.0282e-005
    70	1.45893e-007	2.01361e-005	2.0282e-005
    71	1.45893e-007	2.01361e-005	2.0282e-005
    72	1.45893e-007	2.01361e-005	2.0282e-005
    73	1.45892e-007	2.01361e-005	2.0282e-005
    74	1.45892e-007	2.01361e-005	2.0282e-005
    75	1.45891e-007	2.01361e-005	2.0282e-005
    76	1.45891e-007	2.01361e-005	2.0282e-005
    77	1.45891e-007	2.01361e-005	2.02819e-005
    78	1.4589e-007	2.01361e-005	2.02819e-005
    79	1.4589e-007	2.01361e-005	2.02819e-005
    80	1.45889e-007	2.01361e-005	2.02819e-005
    81	1.45889e-007	2.0136e-005	2.02819e-005
    82	1.45889e-007	2.0136e-005	2.02819e-005
    83	1.45888e-007	2.0136e-005	2.02819e-005
    84	1.45888e-007	2.0136e-005	2.02819e-005
    85	1.45887e-007	2.0136e-005	2.02819e-005
    86	1.45887e-007	2.0136e-005	2.02819e-005
    87	1.45886e-007	2.0136e-005	2.02819e-005
    88	1.45886e-007	2.0136e-005	2.02819e-005
    89	1.45886e-007	2.0136e-005	2.02819e-005
    90	1.45885e-007	2.0136e-005	2.02819e-005
    91	1.45885e-007	2.0136e-005	2.02819e-005
    92	1.45884e-007	2.0136e-005	2.02819e-005
    93	1.45884e-007	2.0136e-005	2.02819e-005
    94	1.45883e-007	2.0136e-005	2.02819e-005
    95	1.45883e-007	2.0136e-005	2.02819e-005
    96	1.45882e-007	2.0136e-005	2.02819e-005
    97	1.45882e-007	2.0136e-005	2.02819e-005
    98	1.45881e-007	2.0136e-005	2.02819e-005
    99	1.45881e-007	2.0136e-005	2.02819e-005
   100	1.4588e-007	2.0136e-005	2.02819e-005
   101	1.45879e-007	2.0136e-005	2.02819e-005

Measurement: tr2
  step	tr2	FROM	TO
     1	4.44971e-007	6.13959e-005	6.18409e-005
     2	4.44771e-007	6.13958e-005	6.18406e-005
     3	4.44591e-007	6.13958e-005	6.18404e-005
     4	4.44415e-007	6.13958e-005	6.18402e-005
     5	4.44241e-007	6.13958e-005	6.18401e-005
     6	4.44066e-007	6.13958e-005	6.18399e-005
     7	4.43861e-007	6.13958e-005	6.18396e-005
     8	4.43664e-007	6.13958e-005	6.18394e-005
     9	4.43423e-007	6.13958e-005	6.18392e-005
    10	4.43204e-007	6.13958e-005	6.1839e-005
    11	4.43161e-007	6.13958e-005	6.18389e-005
    12	4.43145e-007	6.13958e-005	6.18389e-005
    13	4.4316e-007	6.13958e-005	6.18389e-005
    14	4.38091e-007	6.13959e-005	6.18339e-005
    15	4.45415e-007	6.13963e-005	6.18417e-005
    16	4.43743e-007	6.13958e-005	6.18395e-005
    17	4.43977e-007	6.13958e-005	6.18397e-005
    18	4.44177e-007	6.13958e-005	6.184e-005
    19	4.44454e-007	6.13958e-005	6.18402e-005
    20	4.44766e-007	6.13958e-005	6.18406e-005
    21	4.45145e-007	6.13958e-005	6.1841e-005
    22	4.45603e-007	6.13959e-005	6.18415e-005
    23	4.40437e-007	6.13956e-005	6.1836e-005
    24	4.39441e-007	6.13955e-005	6.1835e-005
    25	4.38737e-007	6.13955e-005	6.18342e-005
    26	4.38275e-007	6.13955e-005	6.18337e-005
    27	4.48796e-007	6.13963e-005	6.18451e-005
    28	4.45013e-007	6.13962e-005	6.18412e-005
    29	4.38838e-007	6.13956e-005	6.18344e-005
    30	4.39025e-007	6.13956e-005	6.18346e-005
    31	4.46022e-007	6.13963e-005	6.18423e-005
    32	4.48799e-007	6.13965e-005	6.18453e-005
    33	4.45487e-007	6.13963e-005	6.18417e-005
    34	4.44276e-007	6.13962e-005	6.18405e-005
    35	4.45952e-007	6.13963e-005	6.18422e-005
    36	4.44381e-007	6.13959e-005	6.18403e-005
    37	4.47701e-007	6.13958e-005	6.18435e-005
    38	4.41859e-007	6.13959e-005	6.18378e-005
    39	4.37107e-007	6.13962e-005	6.18334e-005
    40	4.44536e-007	6.13962e-005	6.18407e-005
    41	4.39791e-007	6.13958e-005	6.18356e-005
    42	4.38292e-007	6.13958e-005	6.18341e-005
    43	4.42317e-007	6.13964e-005	6.18387e-005
    44	4.45147e-007	6.13962e-005	6.18414e-005
    45	4.33297e-007	6.13954e-005	6.18287e-005
    46	4.34905e-007	6.13953e-005	6.18302e-005
    47	4.35734e-007	6.13954e-005	6.18311e-005
    48	4.36979e-007	6.13954e-005	6.18324e-005
    49	4.36123e-007	6.13954e-005	6.18315e-005
    50	4.36739e-007	6.13965e-005	6.18333e-005
    51	4.34686e-007	6.13957e-005	6.18303e-005
    52	4.36817e-007	6.1396e-005	6.18328e-005
    53	4.3465e-007	6.13957e-005	6.18303e-005
    54	4.46073e-007	6.13963e-005	6.18424e-005
    55	4.37623e-007	6.13954e-005	6.1833e-005
    56	4.37916e-007	6.13954e-005	6.18333e-005
    57	4.31175e-007	6.1396e-005	6.18272e-005
    58	4.31257e-007	6.1396e-005	6.18273e-005
    59	4.31128e-007	6.1396e-005	6.18271e-005
    60	4.31068e-007	6.1396e-005	6.18271e-005
    61	4.44219e-007	6.1396e-005	6.18402e-005
    62	4.36063e-007	6.13957e-005	6.18317e-005
    63	4.30928e-007	6.13965e-005	6.18274e-005
    64	4.36881e-007	6.1396e-005	6.18329e-005
    65	4.47096e-007	6.13963e-005	6.18434e-005
    66	4.31681e-007	6.1396e-005	6.18277e-005
    67	4.35254e-007	6.13961e-005	6.18313e-005
    68	4.36516e-007	6.13961e-005	6.18326e-005
    69	4.36892e-007	6.13962e-005	6.18331e-005
    70	4.36037e-007	6.13961e-005	6.18322e-005
    71	4.34194e-007	6.13961e-005	6.18303e-005
    72	4.30761e-007	6.1396e-005	6.18268e-005
    73	4.31306e-007	6.13959e-005	6.18272e-005
    74	4.32784e-007	6.13958e-005	6.18286e-005
    75	4.30884e-007	6.1396e-005	6.18269e-005
    76	4.36521e-007	6.13965e-005	6.18331e-005
    77	4.48847e-007	6.13964e-005	6.18452e-005
    78	4.32267e-007	6.13961e-005	6.18283e-005
    79	4.30863e-007	6.13962e-005	6.18271e-005
    80	4.34783e-007	6.13958e-005	6.18306e-005
    81	4.30994e-007	6.13963e-005	6.18273e-005
    82	4.34052e-007	6.13957e-005	6.18297e-005
    83	4.3777e-007	6.13953e-005	6.18331e-005
    84	4.34491e-007	6.13953e-005	6.18298e-005
    85	4.32558e-007	6.13953e-005	6.18279e-005
    86	4.31306e-007	6.13954e-005	6.18267e-005
    87	4.37507e-007	6.13961e-005	6.18336e-005
    88	4.37465e-007	6.13961e-005	6.18336e-005
    89	4.50408e-007	6.13956e-005	6.1846e-005
    90	4.41746e-007	6.13954e-005	6.18371e-005
    91	4.37086e-007	6.13954e-005	6.18325e-005
    92	4.35215e-007	6.13954e-005	6.18306e-005
    93	4.34275e-007	6.13954e-005	6.18297e-005
    94	4.33512e-007	6.13954e-005	6.18289e-005
    95	4.33185e-007	6.13961e-005	6.18293e-005
    96	4.39395e-007	6.1396e-005	6.18354e-005
    97	4.32973e-007	6.13964e-005	6.18293e-005
    98	4.325e-007	6.13961e-005	6.18286e-005
    99	4.37714e-007	6.13963e-005	6.1834e-005
   100	4.38063e-007	6.1396e-005	6.18341e-005
   101	4.35602e-007	6.13965e-005	6.18321e-005

Measurement: vth
  step	v(n004)	at
     1	2.66435	2.01953e-005
     2	2.66431	2.01953e-005
     3	2.66427	2.01953e-005
     4	2.66423	2.01953e-005
     5	2.66419	2.01953e-005
     6	2.66415	2.01953e-005
     7	2.66411	2.01953e-005
     8	2.66407	2.01953e-005
     9	2.66404	2.01953e-005
    10	2.664	2.01953e-005
    11	2.66396	2.01953e-005
    12	2.66393	2.01953e-005
    13	2.66389	2.01953e-005
    14	2.66386	2.01953e-005
    15	2.66383	2.01953e-005
    16	2.66379	2.01953e-005
    17	2.66376	2.01953e-005
    18	2.66373	2.01953e-005
    19	2.66369	2.01953e-005
    20	2.66366	2.01953e-005
    21	2.66363	2.01953e-005
    22	2.6636	2.01953e-005
    23	2.66357	2.01953e-005
    24	2.66354	2.01953e-005
    25	2.66351	2.01953e-005
    26	2.66349	2.01953e-005
    27	2.66346	2.01953e-005
    28	2.66343	2.01953e-005
    29	2.6634	2.01953e-005
    30	2.66338	2.01953e-005
    31	2.66335	2.01953e-005
    32	2.66332	2.01953e-005
    33	2.6633	2.01953e-005
    34	2.66327	2.01953e-005
    35	2.66325	2.01953e-005
    36	2.66322	2.01953e-005
    37	2.6632	2.01953e-005
    38	2.66318	2.01953e-005
    39	2.66315	2.01953e-005
    40	2.66313	2.01954e-005
    41	2.66311	2.01954e-005
    42	2.66309	2.01954e-005
    43	2.66307	2.01954e-005
    44	2.66304	2.01954e-005
    45	2.66302	2.01954e-005
    46	2.663	2.01954e-005
    47	2.66298	2.01954e-005
    48	2.66296	2.01954e-005
    49	2.66294	2.01954e-005
    50	2.66292	2.01954e-005
    51	2.6629	2.01954e-005
    52	2.66289	2.01954e-005
    53	2.66287	2.01954e-005
    54	2.66285	2.01954e-005
    55	2.66283	2.01954e-005
    56	2.66281	2.01954e-005
    57	2.6628	2.01954e-005
    58	2.66278	2.01954e-005
    59	2.66276	2.01954e-005
    60	2.66275	2.01954e-005
    61	2.66273	2.01954e-005
    62	2.66271	2.01954e-005
    63	2.6627	2.01954e-005
    64	2.66268	2.01954e-005
    65	2.66267	2.01954e-005
    66	2.66265	2.01954e-005
    67	2.66264	2.01954e-005
    68	2.66262	2.01954e-005
    69	2.66261	2.01954e-005
    70	2.66259	2.01954e-005
    71	2.66258	2.01954e-005
    72	2.66256	2.01954e-005
    73	2.66255	2.01954e-005
    74	2.66254	2.01954e-005
    75	2.66252	2.01954e-005
    76	2.66251	2.01954e-005
    77	2.6625	2.01954e-005
    78	2.66249	2.01954e-005
    79	2.66247	2.01954e-005
    80	2.66246	2.01954e-005
    81	2.66245	2.01954e-005
    82	2.66244	2.01954e-005
    83	2.66243	2.01954e-005
    84	2.66242	2.01954e-005
    85	2.6624	2.01954e-005
    86	2.66239	2.01954e-005
    87	2.66238	2.01954e-005
    88	2.66237	2.01954e-005
    89	2.66236	2.01954e-005
    90	2.66235	2.01954e-005
    91	2.66234	2.01954e-005
    92	2.66233	2.01954e-005
    93	2.66232	2.01954e-005
    94	2.66231	2.01954e-005
    95	2.6623	2.01954e-005
    96	2.66229	2.01954e-005
    97	2.66228	2.01954e-005
    98	2.66227	2.01954e-005
    99	2.66227	2.01954e-005
   100	2.66226	2.01954e-005
   101	2.66225	2.01954e-005


Date: Tue Mar 22 14:29:41 2022
Total elapsed time: 1.116 seconds.

tnom = 27
temp = 27
method = modified trap
totiter = 2631
traniter = 2602
tranpoints = 1145
accept = 1112
rejected = 33
matrix size = 11
fillins = 0
solver = Normal
Matrix Compiler1: 674 bytes object code size  0.1/0.1/[0.1]
Matrix Compiler2: 847 bytes object code size  0.1/0.1/[0.1]

