Circuit: * C:\Users\user\Documents\LTspiceXVII\file\Montecarlo\monte_SiC.asc

Direct Newton iteration for .op point succeeded.
.step tol1=0
.step tol1=0.01
.step tol1=0.02
.step tol1=0.03
.step tol1=0.04
.step tol1=0.05
.step tol1=0.06
.step tol1=0.07
.step tol1=0.08
.step tol1=0.09
.step tol1=0.1
.step tol1=0.11
.step tol1=0.12
.step tol1=0.13
.step tol1=0.14
.step tol1=0.15
.step tol1=0.16
.step tol1=0.17
.step tol1=0.18
.step tol1=0.19
.step tol1=0.2
.step tol1=0.21
.step tol1=0.22
.step tol1=0.23
.step tol1=0.24
.step tol1=0.25
.step tol1=0.26
.step tol1=0.27
.step tol1=0.28
.step tol1=0.29
.step tol1=0.3
.step tol1=0.31
.step tol1=0.32
.step tol1=0.33
.step tol1=0.34
.step tol1=0.35
.step tol1=0.36
.step tol1=0.37
.step tol1=0.38
.step tol1=0.39
.step tol1=0.4
.step tol1=0.41
.step tol1=0.42
.step tol1=0.43
.step tol1=0.44
.step tol1=0.45
.step tol1=0.46
.step tol1=0.47
.step tol1=0.48
.step tol1=0.49
.step tol1=0.5
.step tol1=0.51
.step tol1=0.52
.step tol1=0.53
.step tol1=0.54
.step tol1=0.55
.step tol1=0.56
.step tol1=0.57
.step tol1=0.58
.step tol1=0.59
.step tol1=0.6
.step tol1=0.61
.step tol1=0.62
.step tol1=0.63
.step tol1=0.64
.step tol1=0.65
.step tol1=0.66
.step tol1=0.67
.step tol1=0.68
.step tol1=0.69
.step tol1=0.7
.step tol1=0.71
.step tol1=0.72
.step tol1=0.73
.step tol1=0.74
.step tol1=0.75
.step tol1=0.76
.step tol1=0.77
.step tol1=0.78
.step tol1=0.79
.step tol1=0.8
.step tol1=0.81
.step tol1=0.82
.step tol1=0.83
.step tol1=0.84
.step tol1=0.85
.step tol1=0.86
.step tol1=0.87
.step tol1=0.88
.step tol1=0.89
.step tol1=0.9
.step tol1=0.91
.step tol1=0.92
.step tol1=0.93
.step tol1=0.94
.step tol1=0.95
.step tol1=0.96
.step tol1=0.97
.step tol1=0.98
.step tol1=0.99
.step tol1=1


Measurement: imax
  step	MAX(-i(v1))	FROM	TO
     1	0.998033	0	0.0001
     2	0.998033	0	0.0001
     3	0.998033	0	0.0001
     4	0.998033	0	0.0001
     5	0.998033	0	0.0001
     6	0.998033	0	0.0001
     7	0.998033	0	0.0001
     8	0.998033	0	0.0001
     9	0.998033	0	0.0001
    10	0.998033	0	0.0001
    11	0.998033	0	0.0001
    12	0.998033	0	0.0001
    13	0.998033	0	0.0001
    14	0.998033	0	0.0001
    15	0.998033	0	0.0001
    16	0.998033	0	0.0001
    17	0.998033	0	0.0001
    18	0.998033	0	0.0001
    19	0.998033	0	0.0001
    20	0.998033	0	0.0001
    21	0.998033	0	0.0001
    22	0.998033	0	0.0001
    23	0.998033	0	0.0001
    24	0.998033	0	0.0001
    25	0.998033	0	0.0001
    26	0.998033	0	0.0001
    27	0.998033	0	0.0001
    28	0.998033	0	0.0001
    29	0.998033	0	0.0001
    30	0.998033	0	0.0001
    31	0.998033	0	0.0001
    32	0.998033	0	0.0001
    33	0.998033	0	0.0001
    34	0.998033	0	0.0001
    35	0.998033	0	0.0001
    36	0.998033	0	0.0001
    37	0.998033	0	0.0001
    38	0.998033	0	0.0001
    39	0.998033	0	0.0001
    40	0.998035	0	0.0001
    41	0.998035	0	0.0001
    42	0.998034	0	0.0001
    43	0.998035	0	0.0001
    44	0.998034	0	0.0001
    45	0.998034	0	0.0001
    46	0.998034	0	0.0001
    47	0.998034	0	0.0001
    48	0.998035	0	0.0001
    49	0.998035	0	0.0001
    50	0.998035	0	0.0001
    51	0.998034	0	0.0001
    52	0.998034	0	0.0001
    53	0.998034	0	0.0001
    54	0.998035	0	0.0001
    55	0.998033	0	0.0001
    56	0.998033	0	0.0001
    57	0.998033	0	0.0001
    58	0.998033	0	0.0001
    59	0.998033	0	0.0001
    60	0.998033	0	0.0001
    61	0.998033	0	0.0001
    62	0.998033	0	0.0001
    63	0.998033	0	0.0001
    64	0.998033	0	0.0001
    65	0.998033	0	0.0001
    66	0.998033	0	0.0001
    67	0.998033	0	0.0001
    68	0.998033	0	0.0001
    69	0.998033	0	0.0001
    70	0.998033	0	0.0001
    71	0.998036	0	0.0001
    72	0.998034	0	0.0001
    73	0.998034	0	0.0001
    74	0.998034	0	0.0001
    75	0.998034	0	0.0001
    76	0.998034	0	0.0001
    77	0.998034	0	0.0001
    78	0.998034	0	0.0001
    79	0.998037	0	0.0001
    80	0.998036	0	0.0001
    81	0.998037	0	0.0001
    82	0.998037	0	0.0001
    83	0.998037	0	0.0001
    84	0.998037	0	0.0001
    85	0.998037	0	0.0001
    86	0.998037	0	0.0001
    87	0.998037	0	0.0001
    88	0.998034	0	0.0001
    89	0.998034	0	0.0001
    90	0.998037	0	0.0001
    91	0.998034	0	0.0001
    92	0.998034	0	0.0001
    93	0.998034	0	0.0001
    94	0.998034	0	0.0001
    95	0.998036	0	0.0001
    96	0.998035	0	0.0001
    97	0.998035	0	0.0001
    98	0.998035	0	0.0001
    99	0.998035	0	0.0001
   100	0.998035	0	0.0001
   101	0.998035	0	0.0001

Measurement: tr1
  step	tr1	FROM	TO
     1	1.46403e-007	2.01363e-005	2.02827e-005
     2	1.46411e-007	2.01363e-005	2.02827e-005
     3	1.46419e-007	2.01363e-005	2.02827e-005
     4	1.46427e-007	2.01363e-005	2.02827e-005
     5	1.46435e-007	2.01363e-005	2.02827e-005
     6	1.46443e-007	2.01363e-005	2.02827e-005
     7	1.46451e-007	2.01363e-005	2.02827e-005
     8	1.46458e-007	2.01363e-005	2.02828e-005
     9	1.46466e-007	2.01363e-005	2.02828e-005
    10	1.46474e-007	2.01363e-005	2.02828e-005
    11	1.46481e-007	2.01363e-005	2.02828e-005
    12	1.46488e-007	2.01363e-005	2.02828e-005
    13	1.46496e-007	2.01363e-005	2.02828e-005
    14	1.46503e-007	2.01363e-005	2.02828e-005
    15	1.4651e-007	2.01363e-005	2.02828e-005
    16	1.46517e-007	2.01363e-005	2.02828e-005
    17	1.46524e-007	2.01363e-005	2.02828e-005
    18	1.46531e-007	2.01363e-005	2.02829e-005
    19	1.46538e-007	2.01363e-005	2.02829e-005
    20	1.46545e-007	2.01363e-005	2.02829e-005
    21	1.46552e-007	2.01363e-005	2.02829e-005
    22	1.46558e-007	2.01363e-005	2.02829e-005
    23	1.46565e-007	2.01363e-005	2.02829e-005
    24	1.46571e-007	2.01363e-005	2.02829e-005
    25	1.46578e-007	2.01363e-005	2.02829e-005
    26	1.46584e-007	2.01363e-005	2.02829e-005
    27	1.4659e-007	2.01363e-005	2.02829e-005
    28	1.46597e-007	2.01363e-005	2.02829e-005
    29	1.46603e-007	2.01363e-005	2.02829e-005
    30	1.46609e-007	2.01363e-005	2.0283e-005
    31	1.46615e-007	2.01363e-005	2.0283e-005
    32	1.4662e-007	2.01363e-005	2.0283e-005
    33	1.46626e-007	2.01364e-005	2.0283e-005
    34	1.46632e-007	2.01364e-005	2.0283e-005
    35	1.46638e-007	2.01364e-005	2.0283e-005
    36	1.46643e-007	2.01364e-005	2.0283e-005
    37	1.46649e-007	2.01364e-005	2.0283e-005
    38	1.46654e-007	2.01364e-005	2.0283e-005
    39	1.46659e-007	2.01364e-005	2.0283e-005
    40	1.46665e-007	2.01364e-005	2.0283e-005
    41	1.4667e-007	2.01364e-005	2.0283e-005
    42	1.46675e-007	2.01364e-005	2.0283e-005
    43	1.4668e-007	2.01364e-005	2.02831e-005
    44	1.46685e-007	2.01364e-005	2.02831e-005
    45	1.46689e-007	2.01364e-005	2.02831e-005
    46	1.46694e-007	2.01364e-005	2.02831e-005
    47	1.46699e-007	2.01364e-005	2.02831e-005
    48	1.46421e-007	2.01364e-005	2.02828e-005
    49	1.46423e-007	2.01364e-005	2.02828e-005
    50	1.46424e-007	2.01364e-005	2.02828e-005
    51	1.46426e-007	2.01364e-005	2.02828e-005
    52	1.46427e-007	2.01364e-005	2.02828e-005
    53	1.46429e-007	2.01364e-005	2.02828e-005
    54	1.46431e-007	2.01364e-005	2.02828e-005
    55	1.46431e-007	2.01364e-005	2.02828e-005
    56	1.46433e-007	2.01364e-005	2.02828e-005
    57	1.46434e-007	2.01364e-005	2.02828e-005
    58	1.46435e-007	2.01364e-005	2.02828e-005
    59	1.46436e-007	2.01364e-005	2.02828e-005
    60	1.46437e-007	2.01364e-005	2.02828e-005
    61	1.46438e-007	2.01364e-005	2.02828e-005
    62	1.46439e-007	2.01364e-005	2.02829e-005
    63	1.46439e-007	2.01364e-005	2.02829e-005
    64	1.4644e-007	2.01364e-005	2.02829e-005
    65	1.4644e-007	2.01364e-005	2.02829e-005
    66	1.46441e-007	2.01364e-005	2.02829e-005
    67	1.46441e-007	2.01364e-005	2.02829e-005
    68	1.46441e-007	2.01364e-005	2.02829e-005
    69	1.46442e-007	2.01364e-005	2.02829e-005
    70	1.46442e-007	2.01364e-005	2.02829e-005
    71	1.46443e-007	2.01364e-005	2.02829e-005
    72	1.46442e-007	2.01364e-005	2.02829e-005
    73	1.46442e-007	2.01364e-005	2.02829e-005
    74	1.46441e-007	2.01364e-005	2.02829e-005
    75	1.46441e-007	2.01364e-005	2.02829e-005
    76	1.4644e-007	2.01364e-005	2.02829e-005
    77	1.4644e-007	2.01364e-005	2.02829e-005
    78	1.46439e-007	2.01364e-005	2.02829e-005
    79	1.4644e-007	2.01364e-005	2.02829e-005
    80	1.46439e-007	2.01364e-005	2.02829e-005
    81	1.46438e-007	2.01365e-005	2.02829e-005
    82	1.46437e-007	2.01365e-005	2.02829e-005
    83	1.46436e-007	2.01365e-005	2.02829e-005
    84	1.46435e-007	2.01365e-005	2.02829e-005
    85	1.46433e-007	2.01365e-005	2.02829e-005
    86	1.46432e-007	2.01365e-005	2.02829e-005
    87	1.46431e-007	2.01365e-005	2.02829e-005
    88	1.46428e-007	2.01365e-005	2.02829e-005
    89	1.46426e-007	2.01365e-005	2.02829e-005
    90	1.46426e-007	2.01365e-005	2.02829e-005
    91	1.46423e-007	2.01365e-005	2.02829e-005
    92	1.46421e-007	2.01365e-005	2.02829e-005
    93	1.46419e-007	2.01365e-005	2.02829e-005
    94	1.46417e-007	2.01365e-005	2.02829e-005
    95	1.46415e-007	2.01365e-005	2.02829e-005
    96	1.46413e-007	2.01365e-005	2.02829e-005
    97	1.4629e-007	2.01365e-005	2.02828e-005
    98	1.46289e-007	2.01365e-005	2.02828e-005
    99	1.46288e-007	2.01365e-005	2.02828e-005
   100	1.46286e-007	2.01365e-005	2.02828e-005
   101	1.46284e-007	2.01365e-005	2.02828e-005

Measurement: tr2
  step	tr2	FROM	TO
     1	4.44971e-007	6.13959e-005	6.18409e-005
     2	4.44973e-007	6.13959e-005	6.18409e-005
     3	4.44975e-007	6.13959e-005	6.18409e-005
     4	4.44977e-007	6.13959e-005	6.18409e-005
     5	4.44979e-007	6.13959e-005	6.18409e-005
     6	4.44982e-007	6.13959e-005	6.18409e-005
     7	4.44984e-007	6.13959e-005	6.18409e-005
     8	4.44986e-007	6.13959e-005	6.18409e-005
     9	4.44988e-007	6.13959e-005	6.18409e-005
    10	4.4499e-007	6.13959e-005	6.18409e-005
    11	4.44993e-007	6.13959e-005	6.18409e-005
    12	4.44995e-007	6.13959e-005	6.18409e-005
    13	4.44997e-007	6.13959e-005	6.18409e-005
    14	4.44999e-007	6.13959e-005	6.18409e-005
    15	4.45002e-007	6.13959e-005	6.18409e-005
    16	4.45004e-007	6.13959e-005	6.18409e-005
    17	4.45006e-007	6.13959e-005	6.18409e-005
    18	4.45008e-007	6.13959e-005	6.18409e-005
    19	4.45011e-007	6.13959e-005	6.18409e-005
    20	4.45013e-007	6.13959e-005	6.18409e-005
    21	4.45016e-007	6.13959e-005	6.18409e-005
    22	4.45018e-007	6.13959e-005	6.18409e-005
    23	4.4502e-007	6.13959e-005	6.18409e-005
    24	4.45023e-007	6.13959e-005	6.18409e-005
    25	4.45025e-007	6.13959e-005	6.18409e-005
    26	4.45027e-007	6.13959e-005	6.18409e-005
    27	4.4503e-007	6.13959e-005	6.1841e-005
    28	4.45032e-007	6.13959e-005	6.1841e-005
    29	4.45035e-007	6.13959e-005	6.1841e-005
    30	4.45037e-007	6.13959e-005	6.1841e-005
    31	4.4504e-007	6.13959e-005	6.1841e-005
    32	4.45042e-007	6.13959e-005	6.1841e-005
    33	4.45045e-007	6.13959e-005	6.1841e-005
    34	4.45047e-007	6.13959e-005	6.1841e-005
    35	4.4505e-007	6.13959e-005	6.1841e-005
    36	4.40605e-007	6.13967e-005	6.18373e-005
    37	4.31984e-007	6.13957e-005	6.18277e-005
    38	4.37298e-007	6.13959e-005	6.18332e-005
    39	4.45281e-007	6.1396e-005	6.18412e-005
    40	4.39268e-007	6.13959e-005	6.18351e-005
    41	4.3893e-007	6.13964e-005	6.18353e-005
    42	4.37534e-007	6.13962e-005	6.18337e-005
    43	4.32966e-007	6.13964e-005	6.18294e-005
    44	4.31632e-007	6.13963e-005	6.18279e-005
    45	4.3859e-007	6.13961e-005	6.18346e-005
    46	4.43482e-007	6.13961e-005	6.18396e-005
    47	4.4147e-007	6.13967e-005	6.18382e-005
    48	4.36014e-007	6.13961e-005	6.18321e-005
    49	4.44936e-007	6.13962e-005	6.18412e-005
    50	4.40184e-007	6.13968e-005	6.18369e-005
    51	4.34904e-007	6.1396e-005	6.18309e-005
    52	4.38542e-007	6.13963e-005	6.18349e-005
    53	4.43469e-007	6.13962e-005	6.18396e-005
    54	4.36635e-007	6.13965e-005	6.18331e-005
    55	4.45102e-007	6.13959e-005	6.18411e-005
    56	4.45105e-007	6.13959e-005	6.18411e-005
    57	4.45108e-007	6.1396e-005	6.18411e-005
    58	4.45111e-007	6.1396e-005	6.18411e-005
    59	4.45114e-007	6.1396e-005	6.18411e-005
    60	4.45116e-007	6.1396e-005	6.18411e-005
    61	4.45119e-007	6.1396e-005	6.18411e-005
    62	4.45122e-007	6.1396e-005	6.18411e-005
    63	4.45125e-007	6.1396e-005	6.18411e-005
    64	4.45128e-007	6.1396e-005	6.18411e-005
    65	4.45131e-007	6.1396e-005	6.18411e-005
    66	4.45134e-007	6.1396e-005	6.18411e-005
    67	4.45136e-007	6.1396e-005	6.18411e-005
    68	4.45139e-007	6.1396e-005	6.18411e-005
    69	4.45142e-007	6.1396e-005	6.18411e-005
    70	4.45145e-007	6.1396e-005	6.18411e-005
    71	4.40961e-007	6.13969e-005	6.18379e-005
    72	4.33257e-007	6.13961e-005	6.18294e-005
    73	4.37846e-007	6.13963e-005	6.18341e-005
    74	4.41443e-007	6.13968e-005	6.18383e-005
    75	4.44826e-007	6.13963e-005	6.18411e-005
    76	4.40266e-007	6.1396e-005	6.18363e-005
    77	4.41447e-007	6.13968e-005	6.18383e-005
    78	4.40895e-007	6.13971e-005	6.1838e-005
    79	4.41372e-007	6.13969e-005	6.18382e-005
    80	4.45232e-007	6.13963e-005	6.18415e-005
    81	4.35612e-007	6.13961e-005	6.18317e-005
    82	4.40966e-007	6.13967e-005	6.18377e-005
    83	4.34355e-007	6.13962e-005	6.18305e-005
    84	4.4569e-007	6.13963e-005	6.1842e-005
    85	4.36126e-007	6.13961e-005	6.18323e-005
    86	4.40943e-007	6.13969e-005	6.18379e-005
    87	4.41238e-007	6.13967e-005	6.18379e-005
    88	4.36282e-007	6.13964e-005	6.18327e-005
    89	4.31616e-007	6.13965e-005	6.18281e-005
    90	4.46199e-007	6.1396e-005	6.18422e-005
    91	4.40921e-007	6.1397e-005	6.18379e-005
    92	4.37848e-007	6.1396e-005	6.18339e-005
    93	4.39078e-007	6.13961e-005	6.18351e-005
    94	4.36085e-007	6.13961e-005	6.18322e-005
    95	4.44438e-007	6.13963e-005	6.18408e-005
    96	4.36674e-007	6.13964e-005	6.1833e-005
    97	4.45207e-007	6.13959e-005	6.18411e-005
    98	4.4521e-007	6.13959e-005	6.18411e-005
    99	4.45213e-007	6.13959e-005	6.18411e-005
   100	4.45217e-007	6.13959e-005	6.18411e-005
   101	4.4522e-007	6.13959e-005	6.18412e-005

Measurement: vth
  step	v(n004)	at
     1	2.66435	2.01953e-005
     2	2.66438	2.01953e-005
     3	2.66441	2.01953e-005
     4	2.66444	2.01953e-005
     5	2.66446	2.01953e-005
     6	2.66449	2.01953e-005
     7	2.66452	2.01953e-005
     8	2.66454	2.01953e-005
     9	2.66457	2.01953e-005
    10	2.6646	2.01953e-005
    11	2.66462	2.01953e-005
    12	2.66465	2.01953e-005
    13	2.66468	2.01953e-005
    14	2.66471	2.01953e-005
    15	2.66473	2.01953e-005
    16	2.66476	2.01953e-005
    17	2.66479	2.01953e-005
    18	2.66481	2.01953e-005
    19	2.66484	2.01953e-005
    20	2.66487	2.01953e-005
    21	2.6649	2.01953e-005
    22	2.66492	2.01953e-005
    23	2.66495	2.01953e-005
    24	2.66498	2.01953e-005
    25	2.665	2.01953e-005
    26	2.66503	2.01953e-005
    27	2.66506	2.01953e-005
    28	2.66509	2.01953e-005
    29	2.66511	2.01953e-005
    30	2.66514	2.01953e-005
    31	2.66517	2.01953e-005
    32	2.66519	2.01953e-005
    33	2.66522	2.01953e-005
    34	2.66525	2.01953e-005
    35	2.66527	2.01953e-005
    36	2.6653	2.01953e-005
    37	2.66533	2.01953e-005
    38	2.66536	2.01953e-005
    39	2.66538	2.01953e-005
    40	2.66541	2.01953e-005
    41	2.66544	2.01953e-005
    42	2.66546	2.01953e-005
    43	2.66549	2.01953e-005
    44	2.66552	2.01953e-005
    45	2.66555	2.01953e-005
    46	2.66557	2.01953e-005
    47	2.6656	2.01953e-005
    48	2.66563	2.01953e-005
    49	2.66565	2.01953e-005
    50	2.66568	2.01953e-005
    51	2.66571	2.01953e-005
    52	2.66574	2.01953e-005
    53	2.66576	2.01953e-005
    54	2.66579	2.01953e-005
    55	2.66582	2.01953e-005
    56	2.66584	2.01953e-005
    57	2.66587	2.01953e-005
    58	2.6659	2.01953e-005
    59	2.66593	2.01953e-005
    60	2.66595	2.01953e-005
    61	2.66598	2.01953e-005
    62	2.66601	2.01953e-005
    63	2.66603	2.01953e-005
    64	2.66606	2.01953e-005
    65	2.66609	2.01953e-005
    66	2.66612	2.01953e-005
    67	2.66614	2.01953e-005
    68	2.66617	2.01953e-005
    69	2.6662	2.01953e-005
    70	2.66622	2.01953e-005
    71	2.66625	2.01953e-005
    72	2.66628	2.01953e-005
    73	2.66631	2.01953e-005
    74	2.66633	2.01953e-005
    75	2.66636	2.01953e-005
    76	2.66639	2.01952e-005
    77	2.66641	2.01952e-005
    78	2.66644	2.01952e-005
    79	2.66647	2.01952e-005
    80	2.6665	2.01952e-005
    81	2.66652	2.01952e-005
    82	2.66655	2.01952e-005
    83	2.66658	2.01952e-005
    84	2.6666	2.01952e-005
    85	2.66663	2.01952e-005
    86	2.66666	2.01952e-005
    87	2.66669	2.01952e-005
    88	2.66671	2.01952e-005
    89	2.66674	2.01952e-005
    90	2.66677	2.01952e-005
    91	2.66679	2.01952e-005
    92	2.66682	2.01952e-005
    93	2.66685	2.01952e-005
    94	2.66688	2.01952e-005
    95	2.6669	2.01952e-005
    96	2.66693	2.01952e-005
    97	2.66696	2.01952e-005
    98	2.66699	2.01952e-005
    99	2.66702	2.01952e-005
   100	2.66704	2.01952e-005
   101	2.66707	2.01952e-005


Date: Tue Mar 22 14:29:25 2022
Total elapsed time: 1.182 seconds.

tnom = 27
temp = 27
method = modified trap
totiter = 2774
traniter = 2745
tranpoints = 1157
accept = 1121
rejected = 36
matrix size = 11
fillins = 0
solver = Normal
Matrix Compiler1: 674 bytes object code size  0.1/0.1/[0.0]
Matrix Compiler2: off  [0.1]/0.1/0.1

