Circuit: * C:\Users\user\Documents\LTspiceXVII\file\Montecarlo\monte_SiC.asc

Direct Newton iteration for .op point succeeded.
.step tol1=0
.step tol1=0.01
.step tol1=0.02
.step tol1=0.03
.step tol1=0.04
.step tol1=0.05
.step tol1=0.06
.step tol1=0.07
.step tol1=0.08
.step tol1=0.09
.step tol1=0.1
.step tol1=0.11
.step tol1=0.12
.step tol1=0.13
.step tol1=0.14
.step tol1=0.15
.step tol1=0.16
.step tol1=0.17
.step tol1=0.18
.step tol1=0.19
.step tol1=0.2
.step tol1=0.21
.step tol1=0.22
.step tol1=0.23
.step tol1=0.24
.step tol1=0.25
.step tol1=0.26
.step tol1=0.27
.step tol1=0.28
.step tol1=0.29
.step tol1=0.3
.step tol1=0.31
.step tol1=0.32
.step tol1=0.33
.step tol1=0.34
.step tol1=0.35
.step tol1=0.36
.step tol1=0.37
.step tol1=0.38
.step tol1=0.39
.step tol1=0.4
.step tol1=0.41
.step tol1=0.42
.step tol1=0.43
.step tol1=0.44
.step tol1=0.45
.step tol1=0.46
.step tol1=0.47
.step tol1=0.48
.step tol1=0.49
.step tol1=0.5
.step tol1=0.51
.step tol1=0.52
.step tol1=0.53
.step tol1=0.54
.step tol1=0.55
.step tol1=0.56
.step tol1=0.57
.step tol1=0.58
.step tol1=0.59
.step tol1=0.6
.step tol1=0.61
.step tol1=0.62
.step tol1=0.63
.step tol1=0.64
.step tol1=0.65
.step tol1=0.66
.step tol1=0.67
.step tol1=0.68
.step tol1=0.69
.step tol1=0.7
.step tol1=0.71
.step tol1=0.72
.step tol1=0.73
.step tol1=0.74
.step tol1=0.75
.step tol1=0.76
.step tol1=0.77
.step tol1=0.78
.step tol1=0.79
.step tol1=0.8
.step tol1=0.81
.step tol1=0.82
.step tol1=0.83
.step tol1=0.84
.step tol1=0.85
.step tol1=0.86
.step tol1=0.87
.step tol1=0.88
.step tol1=0.89
.step tol1=0.9
.step tol1=0.91
.step tol1=0.92
.step tol1=0.93
.step tol1=0.94
.step tol1=0.95
.step tol1=0.96
.step tol1=0.97
.step tol1=0.98
.step tol1=0.99
.step tol1=1


Measurement: imax
  step	MAX(-i(v1))	FROM	TO
     1	0.998033	0	0.0001
     2	0.998033	0	0.0001
     3	0.998033	0	0.0001
     4	0.998033	0	0.0001
     5	0.998033	0	0.0001
     6	0.998033	0	0.0001
     7	0.998033	0	0.0001
     8	0.998033	0	0.0001
     9	0.998033	0	0.0001
    10	0.998033	0	0.0001
    11	0.998033	0	0.0001
    12	0.998033	0	0.0001
    13	0.998033	0	0.0001
    14	0.998033	0	0.0001
    15	0.998033	0	0.0001
    16	0.998033	0	0.0001
    17	0.998033	0	0.0001
    18	0.998033	0	0.0001
    19	0.998033	0	0.0001
    20	0.998033	0	0.0001
    21	0.998035	0	0.0001
    22	0.998034	0	0.0001
    23	0.998035	0	0.0001
    24	0.998034	0	0.0001
    25	0.998034	0	0.0001
    26	0.998035	0	0.0001
    27	0.998034	0	0.0001
    28	0.998035	0	0.0001
    29	0.998035	0	0.0001
    30	0.998034	0	0.0001
    31	0.998034	0	0.0001
    32	0.998034	0	0.0001
    33	0.998034	0	0.0001
    34	0.998034	0	0.0001
    35	0.998034	0	0.0001
    36	0.998034	0	0.0001
    37	0.998034	0	0.0001
    38	0.998034	0	0.0001
    39	0.998034	0	0.0001
    40	0.998034	0	0.0001
    41	0.998034	0	0.0001
    42	0.998034	0	0.0001
    43	0.998035	0	0.0001
    44	0.998035	0	0.0001
    45	0.998035	0	0.0001
    46	0.998034	0	0.0001
    47	0.998034	0	0.0001
    48	0.998035	0	0.0001
    49	0.998035	0	0.0001
    50	0.998035	0	0.0001
    51	0.998035	0	0.0001
    52	0.998035	0	0.0001
    53	0.998035	0	0.0001
    54	0.998035	0	0.0001
    55	0.998035	0	0.0001
    56	0.998035	0	0.0001
    57	0.998035	0	0.0001
    58	0.998035	0	0.0001
    59	0.998035	0	0.0001
    60	0.998035	0	0.0001
    61	0.998035	0	0.0001
    62	0.998035	0	0.0001
    63	0.998035	0	0.0001
    64	0.998035	0	0.0001
    65	0.998035	0	0.0001
    66	0.998035	0	0.0001
    67	0.998035	0	0.0001
    68	0.998035	0	0.0001
    69	0.998035	0	0.0001
    70	0.998035	0	0.0001
    71	0.998034	0	0.0001
    72	0.998034	0	0.0001
    73	0.998035	0	0.0001
    74	0.998034	0	0.0001
    75	0.998034	0	0.0001
    76	0.998034	0	0.0001
    77	0.998034	0	0.0001
    78	0.998034	0	0.0001
    79	0.998034	0	0.0001
    80	0.998034	0	0.0001
    81	0.998035	0	0.0001
    82	0.998035	0	0.0001
    83	0.998035	0	0.0001
    84	0.998035	0	0.0001
    85	0.998035	0	0.0001
    86	0.998034	0	0.0001
    87	0.998034	0	0.0001
    88	0.998035	0	0.0001
    89	0.998034	0	0.0001
    90	0.998035	0	0.0001
    91	0.998035	0	0.0001
    92	0.998035	0	0.0001
    93	0.998035	0	0.0001
    94	0.998035	0	0.0001
    95	0.998035	0	0.0001
    96	0.998035	0	0.0001
    97	0.998035	0	0.0001
    98	0.998035	0	0.0001
    99	0.998035	0	0.0001
   100	0.998035	0	0.0001
   101	0.998035	0	0.0001

Measurement: tr1
  step	tr1	FROM	TO
     1	1.46403e-007	2.01363e-005	2.02827e-005
     2	1.46403e-007	2.01363e-005	2.02827e-005
     3	1.46403e-007	2.01363e-005	2.02827e-005
     4	1.46403e-007	2.01363e-005	2.02827e-005
     5	1.46403e-007	2.01363e-005	2.02827e-005
     6	1.46403e-007	2.01363e-005	2.02827e-005
     7	1.46403e-007	2.01363e-005	2.02827e-005
     8	1.46403e-007	2.01363e-005	2.02827e-005
     9	1.46403e-007	2.01363e-005	2.02827e-005
    10	1.46403e-007	2.01363e-005	2.02827e-005
    11	1.46403e-007	2.01363e-005	2.02827e-005
    12	1.46403e-007	2.01363e-005	2.02827e-005
    13	1.46403e-007	2.01363e-005	2.02827e-005
    14	1.46403e-007	2.01363e-005	2.02827e-005
    15	1.46403e-007	2.01363e-005	2.02827e-005
    16	1.46403e-007	2.01363e-005	2.02827e-005
    17	1.46403e-007	2.01363e-005	2.02827e-005
    18	1.46403e-007	2.01363e-005	2.02827e-005
    19	1.46403e-007	2.01363e-005	2.02827e-005
    20	1.46403e-007	2.01363e-005	2.02827e-005
    21	1.46404e-007	2.01363e-005	2.02827e-005
    22	1.46403e-007	2.01363e-005	2.02827e-005
    23	1.46404e-007	2.01363e-005	2.02827e-005
    24	1.46403e-007	2.01363e-005	2.02827e-005
    25	1.46403e-007	2.01363e-005	2.02827e-005
    26	1.46404e-007	2.01363e-005	2.02827e-005
    27	1.46404e-007	2.01363e-005	2.02827e-005
    28	1.46404e-007	2.01363e-005	2.02827e-005
    29	1.46404e-007	2.01363e-005	2.02827e-005
    30	1.46404e-007	2.01363e-005	2.02827e-005
    31	1.46404e-007	2.01363e-005	2.02827e-005
    32	1.46404e-007	2.01363e-005	2.02827e-005
    33	1.46404e-007	2.01363e-005	2.02827e-005
    34	1.46404e-007	2.01363e-005	2.02827e-005
    35	1.46404e-007	2.01363e-005	2.02827e-005
    36	1.46404e-007	2.01363e-005	2.02827e-005
    37	1.46404e-007	2.01363e-005	2.02827e-005
    38	1.46404e-007	2.01363e-005	2.02827e-005
    39	1.46404e-007	2.01363e-005	2.02827e-005
    40	1.46404e-007	2.01363e-005	2.02827e-005
    41	1.46404e-007	2.01363e-005	2.02827e-005
    42	1.46404e-007	2.01363e-005	2.02827e-005
    43	1.46404e-007	2.01363e-005	2.02827e-005
    44	1.46404e-007	2.01363e-005	2.02827e-005
    45	1.46404e-007	2.01363e-005	2.02827e-005
    46	1.46404e-007	2.01363e-005	2.02827e-005
    47	1.46404e-007	2.01363e-005	2.02827e-005
    48	1.46404e-007	2.01363e-005	2.02827e-005
    49	1.46404e-007	2.01363e-005	2.02827e-005
    50	1.46404e-007	2.01363e-005	2.02827e-005
    51	1.46404e-007	2.01363e-005	2.02827e-005
    52	1.46404e-007	2.01363e-005	2.02827e-005
    53	1.46404e-007	2.01363e-005	2.02827e-005
    54	1.46404e-007	2.01363e-005	2.02827e-005
    55	1.46404e-007	2.01363e-005	2.02827e-005
    56	1.46404e-007	2.01363e-005	2.02827e-005
    57	1.46404e-007	2.01363e-005	2.02827e-005
    58	1.46404e-007	2.01363e-005	2.02827e-005
    59	1.46404e-007	2.01363e-005	2.02827e-005
    60	1.46404e-007	2.01363e-005	2.02827e-005
    61	1.46404e-007	2.01363e-005	2.02827e-005
    62	1.46404e-007	2.01363e-005	2.02827e-005
    63	1.46404e-007	2.01363e-005	2.02827e-005
    64	1.46404e-007	2.01363e-005	2.02827e-005
    65	1.46404e-007	2.01363e-005	2.02827e-005
    66	1.46404e-007	2.01363e-005	2.02827e-005
    67	1.46404e-007	2.01363e-005	2.02827e-005
    68	1.46404e-007	2.01363e-005	2.02827e-005
    69	1.46404e-007	2.01363e-005	2.02827e-005
    70	1.46404e-007	2.01363e-005	2.02827e-005
    71	1.46404e-007	2.01363e-005	2.02827e-005
    72	1.46404e-007	2.01363e-005	2.02827e-005
    73	1.46404e-007	2.01363e-005	2.02827e-005
    74	1.46404e-007	2.01363e-005	2.02827e-005
    75	1.46404e-007	2.01363e-005	2.02827e-005
    76	1.46404e-007	2.01363e-005	2.02827e-005
    77	1.46404e-007	2.01363e-005	2.02827e-005
    78	1.46404e-007	2.01363e-005	2.02827e-005
    79	1.46404e-007	2.01363e-005	2.02827e-005
    80	1.46404e-007	2.01363e-005	2.02827e-005
    81	1.46404e-007	2.01363e-005	2.02827e-005
    82	1.46404e-007	2.01363e-005	2.02827e-005
    83	1.46404e-007	2.01363e-005	2.02827e-005
    84	1.46404e-007	2.01363e-005	2.02827e-005
    85	1.46404e-007	2.01363e-005	2.02827e-005
    86	1.46404e-007	2.01363e-005	2.02827e-005
    87	1.46404e-007	2.01363e-005	2.02827e-005
    88	1.46404e-007	2.01363e-005	2.02827e-005
    89	1.46404e-007	2.01363e-005	2.02827e-005
    90	1.46404e-007	2.01363e-005	2.02827e-005
    91	1.46404e-007	2.01363e-005	2.02827e-005
    92	1.46404e-007	2.01363e-005	2.02827e-005
    93	1.46404e-007	2.01363e-005	2.02827e-005
    94	1.46404e-007	2.01363e-005	2.02827e-005
    95	1.46404e-007	2.01363e-005	2.02827e-005
    96	1.46404e-007	2.01363e-005	2.02827e-005
    97	1.46404e-007	2.01363e-005	2.02827e-005
    98	1.46404e-007	2.01363e-005	2.02827e-005
    99	1.46404e-007	2.01363e-005	2.02827e-005
   100	1.46404e-007	2.01363e-005	2.02827e-005
   101	1.46404e-007	2.01363e-005	2.02827e-005

Measurement: tr2
  step	tr2	FROM	TO
     1	4.44971e-007	6.13959e-005	6.18409e-005
     2	4.45325e-007	6.13972e-005	6.18426e-005
     3	4.45674e-007	6.13986e-005	6.18442e-005
     4	4.36987e-007	6.13998e-005	6.18368e-005
     5	4.38365e-007	6.14012e-005	6.18396e-005
     6	4.41045e-007	6.1403e-005	6.18441e-005
     7	4.40781e-007	6.14044e-005	6.18452e-005
     8	4.40663e-007	6.14057e-005	6.18464e-005
     9	4.40556e-007	6.1407e-005	6.18476e-005
    10	4.40449e-007	6.14084e-005	6.18488e-005
    11	4.40344e-007	6.14097e-005	6.18501e-005
    12	4.4025e-007	6.1411e-005	6.18513e-005
    13	4.40162e-007	6.14124e-005	6.18526e-005
    14	4.40077e-007	6.14138e-005	6.18538e-005
    15	4.39992e-007	6.14151e-005	6.18551e-005
    16	4.39928e-007	6.14165e-005	6.18564e-005
    17	4.39872e-007	6.14178e-005	6.18577e-005
    18	4.3982e-007	6.14192e-005	6.18591e-005
    19	4.38864e-007	6.14202e-005	6.18591e-005
    20	4.37995e-007	6.14215e-005	6.18595e-005
    21	4.46696e-007	6.14235e-005	6.18702e-005
    22	4.4367e-007	6.14245e-005	6.18681e-005
    23	4.34912e-007	6.14257e-005	6.18606e-005
    24	4.43527e-007	6.14271e-005	6.18707e-005
    25	4.37731e-007	6.14284e-005	6.18662e-005
    26	4.46017e-007	6.14306e-005	6.18766e-005
    27	4.36589e-007	6.14317e-005	6.18683e-005
    28	4.46649e-007	6.14334e-005	6.18801e-005
    29	4.33814e-007	6.14349e-005	6.18687e-005
    30	4.37357e-007	6.1436e-005	6.18733e-005
    31	4.37245e-007	6.1437e-005	6.18743e-005
    32	4.40532e-007	6.14392e-005	6.18797e-005
    33	4.41029e-007	6.14398e-005	6.18809e-005
    34	4.41979e-007	6.14416e-005	6.18836e-005
    35	4.41617e-007	6.14438e-005	6.18854e-005
    36	4.3473e-007	6.14448e-005	6.18795e-005
    37	4.49928e-007	6.14466e-005	6.18965e-005
    38	4.4151e-007	6.14483e-005	6.18898e-005
    39	4.32915e-007	6.14493e-005	6.18822e-005
    40	4.42396e-007	6.14506e-005	6.1893e-005
    41	4.41099e-007	6.14528e-005	6.18939e-005
    42	4.47123e-007	6.1454e-005	6.19011e-005
    43	4.39321e-007	6.14552e-005	6.18945e-005
    44	4.37228e-007	6.14564e-005	6.18936e-005
    45	4.48908e-007	6.14587e-005	6.19076e-005
    46	4.41071e-007	6.14605e-005	6.19015e-005
    47	4.37377e-007	6.14615e-005	6.18989e-005
    48	4.37586e-007	6.14628e-005	6.19003e-005
    49	4.40957e-007	6.14649e-005	6.19058e-005
    50	4.48515e-007	6.14661e-005	6.19146e-005
    51	4.3269e-007	6.14677e-005	6.19003e-005
    52	4.33018e-007	6.14689e-005	6.1902e-005
    53	4.50017e-007	6.14709e-005	6.19209e-005
    54	4.32322e-007	6.14723e-005	6.19046e-005
    55	4.3435e-007	6.14737e-005	6.1908e-005
    56	4.31217e-007	6.14754e-005	6.19066e-005
    57	4.35461e-007	6.14767e-005	6.19122e-005
    58	4.41152e-007	6.14783e-005	6.19195e-005
    59	4.37678e-007	6.14803e-005	6.1918e-005
    60	4.36895e-007	6.14819e-005	6.19188e-005
    61	4.37295e-007	6.14835e-005	6.19208e-005
    62	4.40898e-007	6.14855e-005	6.19264e-005
    63	4.46963e-007	6.14867e-005	6.19336e-005
    64	4.33467e-007	6.14877e-005	6.19212e-005
    65	4.38917e-007	6.14901e-005	6.1929e-005
    66	4.32172e-007	6.14913e-005	6.19235e-005
    67	4.39264e-007	6.14933e-005	6.19325e-005
    68	4.37087e-007	6.14949e-005	6.1932e-005
    69	4.34924e-007	6.14962e-005	6.19311e-005
    70	4.35198e-007	6.14983e-005	6.19335e-005
    71	4.39027e-007	6.15004e-005	6.19394e-005
    72	4.34689e-007	6.15013e-005	6.1936e-005
    73	4.34509e-007	6.15031e-005	6.19376e-005
    74	4.3166e-007	6.15053e-005	6.1937e-005
    75	4.34348e-007	6.1507e-005	6.19414e-005
    76	4.39038e-007	6.1508e-005	6.1947e-005
    77	4.31638e-007	6.15099e-005	6.19416e-005
    78	4.41301e-007	6.15117e-005	6.1953e-005
    79	4.39754e-007	6.15132e-005	6.1953e-005
    80	4.37746e-007	6.15155e-005	6.19532e-005
    81	4.35191e-007	6.15172e-005	6.19524e-005
    82	4.36133e-007	6.15187e-005	6.19549e-005
    83	4.34567e-007	6.15209e-005	6.19555e-005
    84	4.34401e-007	6.15226e-005	6.1957e-005
    85	4.37237e-007	6.15241e-005	6.19613e-005
    86	4.39198e-007	6.15264e-005	6.19656e-005
    87	4.33631e-007	6.15282e-005	6.19618e-005
    88	4.31787e-007	6.15296e-005	6.19614e-005
    89	4.31689e-007	6.15312e-005	6.19629e-005
    90	4.35324e-007	6.15326e-005	6.19679e-005
    91	4.34819e-007	6.15341e-005	6.19689e-005
    92	4.3644e-007	6.15368e-005	6.19732e-005
    93	4.32055e-007	6.15383e-005	6.19704e-005
    94	4.33415e-007	6.15404e-005	6.19738e-005
    95	4.38026e-007	6.15417e-005	6.19797e-005
    96	4.34372e-007	6.15433e-005	6.19777e-005
    97	4.33739e-007	6.15458e-005	6.19796e-005
    98	4.33375e-007	6.15475e-005	6.19809e-005
    99	4.36737e-007	6.15497e-005	6.19864e-005
   100	4.38676e-007	6.15509e-005	6.19896e-005
   101	4.376e-007	6.15526e-005	6.19902e-005

Measurement: vth
  step	v(n004)	at
     1	2.66435	2.01953e-005
     2	2.66435	2.01953e-005
     3	2.66435	2.01953e-005
     4	2.66435	2.01953e-005
     5	2.66435	2.01953e-005
     6	2.66435	2.01953e-005
     7	2.66435	2.01953e-005
     8	2.66435	2.01953e-005
     9	2.66435	2.01953e-005
    10	2.66435	2.01953e-005
    11	2.66435	2.01953e-005
    12	2.66435	2.01953e-005
    13	2.66435	2.01953e-005
    14	2.66435	2.01953e-005
    15	2.66435	2.01953e-005
    16	2.66435	2.01953e-005
    17	2.66435	2.01953e-005
    18	2.66435	2.01953e-005
    19	2.66435	2.01953e-005
    20	2.66435	2.01953e-005
    21	2.66435	2.01953e-005
    22	2.66435	2.01953e-005
    23	2.66435	2.01953e-005
    24	2.66435	2.01953e-005
    25	2.66435	2.01953e-005
    26	2.66435	2.01953e-005
    27	2.66435	2.01953e-005
    28	2.66435	2.01953e-005
    29	2.66435	2.01953e-005
    30	2.66435	2.01953e-005
    31	2.66435	2.01953e-005
    32	2.66435	2.01953e-005
    33	2.66435	2.01953e-005
    34	2.66435	2.01953e-005
    35	2.66435	2.01953e-005
    36	2.66435	2.01953e-005
    37	2.66435	2.01953e-005
    38	2.66435	2.01953e-005
    39	2.66435	2.01953e-005
    40	2.66435	2.01953e-005
    41	2.66435	2.01953e-005
    42	2.66435	2.01953e-005
    43	2.66435	2.01953e-005
    44	2.66435	2.01953e-005
    45	2.66435	2.01953e-005
    46	2.66435	2.01953e-005
    47	2.66435	2.01953e-005
    48	2.66435	2.01953e-005
    49	2.66435	2.01953e-005
    50	2.66435	2.01953e-005
    51	2.66435	2.01953e-005
    52	2.66435	2.01953e-005
    53	2.66435	2.01953e-005
    54	2.66435	2.01953e-005
    55	2.66435	2.01953e-005
    56	2.66435	2.01953e-005
    57	2.66435	2.01953e-005
    58	2.66435	2.01953e-005
    59	2.66435	2.01953e-005
    60	2.66435	2.01953e-005
    61	2.66435	2.01953e-005
    62	2.66435	2.01953e-005
    63	2.66435	2.01953e-005
    64	2.66435	2.01953e-005
    65	2.66435	2.01953e-005
    66	2.66435	2.01953e-005
    67	2.66435	2.01953e-005
    68	2.66435	2.01953e-005
    69	2.66435	2.01953e-005
    70	2.66435	2.01953e-005
    71	2.66435	2.01953e-005
    72	2.66435	2.01953e-005
    73	2.66435	2.01953e-005
    74	2.66435	2.01953e-005
    75	2.66435	2.01953e-005
    76	2.66435	2.01953e-005
    77	2.66435	2.01953e-005
    78	2.66435	2.01953e-005
    79	2.66435	2.01953e-005
    80	2.66435	2.01953e-005
    81	2.66435	2.01953e-005
    82	2.66435	2.01953e-005
    83	2.66435	2.01953e-005
    84	2.66435	2.01953e-005
    85	2.66435	2.01953e-005
    86	2.66435	2.01953e-005
    87	2.66435	2.01953e-005
    88	2.66435	2.01953e-005
    89	2.66435	2.01953e-005
    90	2.66435	2.01953e-005
    91	2.66435	2.01953e-005
    92	2.66435	2.01953e-005
    93	2.66435	2.01953e-005
    94	2.66435	2.01953e-005
    95	2.66435	2.01953e-005
    96	2.66435	2.01953e-005
    97	2.66435	2.01953e-005
    98	2.66435	2.01953e-005
    99	2.66435	2.01953e-005
   100	2.66435	2.01953e-005
   101	2.66435	2.01953e-005


Date: Tue Mar 22 14:28:59 2022
Total elapsed time: 1.333 seconds.

tnom = 27
temp = 27
method = modified trap
totiter = 2547
traniter = 2518
tranpoints = 1144
accept = 1111
rejected = 33
matrix size = 11
fillins = 0
solver = Normal
Matrix Compiler1: 674 bytes object code size  0.1/0.1/[0.1]
Matrix Compiler2: off  [0.1]/0.1/0.1

