Circuit: * C:\Users\user\Documents\LTspiceXVII\file\Montecarlo\monte_SiC.asc

Direct Newton iteration for .op point succeeded.
.step tol1=0
.step tol1=0.01
.step tol1=0.02
.step tol1=0.03
.step tol1=0.04
.step tol1=0.05
.step tol1=0.06
.step tol1=0.07
.step tol1=0.08
.step tol1=0.09
.step tol1=0.1
.step tol1=0.11
.step tol1=0.12
.step tol1=0.13
.step tol1=0.14
.step tol1=0.15
.step tol1=0.16
.step tol1=0.17
.step tol1=0.18
.step tol1=0.19
.step tol1=0.2
.step tol1=0.21
.step tol1=0.22
.step tol1=0.23
.step tol1=0.24
.step tol1=0.25
.step tol1=0.26
.step tol1=0.27
.step tol1=0.28
.step tol1=0.29
.step tol1=0.3
.step tol1=0.31
.step tol1=0.32
.step tol1=0.33
.step tol1=0.34
.step tol1=0.35
.step tol1=0.36
.step tol1=0.37
.step tol1=0.38
.step tol1=0.39
.step tol1=0.4
.step tol1=0.41
.step tol1=0.42
.step tol1=0.43
.step tol1=0.44
.step tol1=0.45
.step tol1=0.46
.step tol1=0.47
.step tol1=0.48
.step tol1=0.49
.step tol1=0.5
.step tol1=0.51
.step tol1=0.52
.step tol1=0.53
.step tol1=0.54
.step tol1=0.55
.step tol1=0.56
.step tol1=0.57
.step tol1=0.58
.step tol1=0.59
.step tol1=0.6
.step tol1=0.61
.step tol1=0.62
.step tol1=0.63
.step tol1=0.64
.step tol1=0.65
.step tol1=0.66
.step tol1=0.67
.step tol1=0.68
.step tol1=0.69
.step tol1=0.7
.step tol1=0.71
.step tol1=0.72
.step tol1=0.73
.step tol1=0.74
.step tol1=0.75
.step tol1=0.76
.step tol1=0.77
.step tol1=0.78
.step tol1=0.79
.step tol1=0.8
.step tol1=0.81
.step tol1=0.82
.step tol1=0.83
.step tol1=0.84
.step tol1=0.85
.step tol1=0.86
.step tol1=0.87
.step tol1=0.88
.step tol1=0.89
.step tol1=0.9
.step tol1=0.91
.step tol1=0.92
.step tol1=0.93
.step tol1=0.94
.step tol1=0.95
.step tol1=0.96
.step tol1=0.97
.step tol1=0.98
.step tol1=0.99
.step tol1=1


Measurement: imax
  step	MAX(-i(v1))	FROM	TO
     1	0.998033	0	0.0001
     2	0.998033	0	0.0001
     3	0.998031	0	0.0001
     4	0.998032	0	0.0001
     5	0.99803	0	0.0001
     6	0.998029	0	0.0001
     7	0.998027	0	0.0001
     8	0.998025	0	0.0001
     9	0.998024	0	0.0001
    10	0.998022	0	0.0001
    11	0.998021	0	0.0001
    12	0.99802	0	0.0001
    13	0.998018	0	0.0001
    14	0.998016	0	0.0001
    15	0.998017	0	0.0001
    16	0.998016	0	0.0001
    17	0.998012	0	0.0001
    18	0.998011	0	0.0001
    19	0.99801	0	0.0001
    20	0.998009	0	0.0001
    21	0.998009	0	0.0001
    22	0.998007	0	0.0001
    23	0.998004	0	0.0001
    24	0.998003	0	0.0001
    25	0.998002	0	0.0001
    26	0.998	0	0.0001
    27	0.997999	0	0.0001
    28	0.997998	0	0.0001
    29	0.997997	0	0.0001
    30	0.997995	0	0.0001
    31	0.997995	0	0.0001
    32	0.997992	0	0.0001
    33	0.997992	0	0.0001
    34	0.997991	0	0.0001
    35	0.997988	0	0.0001
    36	0.997987	0	0.0001
    37	0.997987	0	0.0001
    38	0.997986	0	0.0001
    39	0.997983	0	0.0001
    40	0.997982	0	0.0001
    41	0.99798	0	0.0001
    42	0.997979	0	0.0001
    43	0.997978	0	0.0001
    44	0.997979	0	0.0001
    45	0.997975	0	0.0001
    46	0.997974	0	0.0001
    47	0.997975	0	0.0001
    48	0.997973	0	0.0001
    49	0.997971	0	0.0001
    50	0.997968	0	0.0001
    51	0.997968	0	0.0001
    52	0.997967	0	0.0001
    53	0.997966	0	0.0001
    54	0.997965	0	0.0001
    55	0.997963	0	0.0001
    56	0.997962	0	0.0001
    57	0.997959	0	0.0001
    58	0.997959	0	0.0001
    59	0.997957	0	0.0001
    60	0.997955	0	0.0001
    61	0.997954	0	0.0001
    62	0.997953	0	0.0001
    63	0.997952	0	0.0001
    64	0.99795	0	0.0001
    65	0.997948	0	0.0001
    66	0.997947	0	0.0001
    67	0.997946	0	0.0001
    68	0.997945	0	0.0001
    69	0.997943	0	0.0001
    70	0.997942	0	0.0001
    71	0.99794	0	0.0001
    72	0.997941	0	0.0001
    73	0.99794	0	0.0001
    74	0.997938	0	0.0001
    75	0.997936	0	0.0001
    76	0.997934	0	0.0001
    77	0.997934	0	0.0001
    78	0.997933	0	0.0001
    79	0.997932	0	0.0001
    80	0.99793	0	0.0001
    81	0.997929	0	0.0001
    82	0.997926	0	0.0001
    83	0.997924	0	0.0001
    84	0.997923	0	0.0001
    85	0.997922	0	0.0001
    86	0.99792	0	0.0001
    87	0.997921	0	0.0001
    88	0.99792	0	0.0001
    89	0.997919	0	0.0001
    90	0.997917	0	0.0001
    91	0.997916	0	0.0001
    92	0.997915	0	0.0001
    93	0.997913	0	0.0001
    94	0.997912	0	0.0001
    95	0.997911	0	0.0001
    96	0.997909	0	0.0001
    97	0.997908	0	0.0001
    98	0.997907	0	0.0001
    99	0.997906	0	0.0001
   100	0.997904	0	0.0001
   101	0.997901	0	0.0001

Measurement: tr1
  step	tr1	FROM	TO
     1	1.46403e-007	2.01363e-005	2.02827e-005
     2	1.46548e-007	2.01364e-005	2.02829e-005
     3	1.46688e-007	2.01365e-005	2.02832e-005
     4	1.46828e-007	2.01366e-005	2.02834e-005
     5	1.46962e-007	2.01367e-005	2.02837e-005
     6	1.47093e-007	2.01368e-005	2.02839e-005
     7	1.47221e-007	2.01369e-005	2.02841e-005
     8	1.47315e-007	2.0137e-005	2.02843e-005
     9	1.47435e-007	2.01371e-005	2.02845e-005
    10	1.47552e-007	2.01372e-005	2.02848e-005
    11	1.47791e-007	2.01373e-005	2.02851e-005
    12	1.47908e-007	2.01374e-005	2.02853e-005
    13	1.48024e-007	2.01375e-005	2.02855e-005
    14	1.48138e-007	2.01376e-005	2.02857e-005
    15	1.48156e-007	2.01377e-005	2.02858e-005
    16	1.48263e-007	2.01378e-005	2.0286e-005
    17	1.48365e-007	2.01379e-005	2.02862e-005
    18	1.48465e-007	2.0138e-005	2.02864e-005
    19	1.48563e-007	2.01381e-005	2.02866e-005
    20	1.48962e-007	2.01382e-005	2.02871e-005
    21	1.49111e-007	2.01383e-005	2.02874e-005
    22	1.49259e-007	2.01383e-005	2.02876e-005
    23	1.49229e-007	2.01384e-005	2.02877e-005
    24	1.49598e-007	2.01385e-005	2.02881e-005
    25	1.49557e-007	2.01386e-005	2.02882e-005
    26	1.49765e-007	2.01387e-005	2.02885e-005
    27	1.49905e-007	2.01388e-005	2.02887e-005
    28	1.50045e-007	2.01389e-005	2.02889e-005
    29	1.50183e-007	2.0139e-005	2.02892e-005
    30	1.50349e-007	2.01391e-005	2.02894e-005
    31	1.50487e-007	2.01392e-005	2.02896e-005
    32	1.50621e-007	2.01392e-005	2.02899e-005
    33	1.50022e-007	2.01393e-005	2.02893e-005
    34	1.49812e-007	2.01394e-005	2.02892e-005
    35	1.49686e-007	2.01395e-005	2.02892e-005
    36	1.49623e-007	2.01396e-005	2.02892e-005
    37	1.4958e-007	2.01397e-005	2.02893e-005
    38	1.49528e-007	2.01398e-005	2.02893e-005
    39	1.49477e-007	2.01398e-005	2.02893e-005
    40	1.49468e-007	2.01399e-005	2.02894e-005
    41	1.49471e-007	2.014e-005	2.02895e-005
    42	1.49484e-007	2.01401e-005	2.02896e-005
    43	1.51006e-007	2.01402e-005	2.02912e-005
    44	1.51132e-007	2.01403e-005	2.02914e-005
    45	1.51273e-007	2.01404e-005	2.02916e-005
    46	1.51405e-007	2.01404e-005	2.02918e-005
    47	1.51545e-007	2.01405e-005	2.02921e-005
    48	1.51686e-007	2.01406e-005	2.02923e-005
    49	1.5183e-007	2.01407e-005	2.02925e-005
    50	1.51974e-007	2.01408e-005	2.02927e-005
    51	1.52134e-007	2.01408e-005	2.0293e-005
    52	1.52285e-007	2.01409e-005	2.02932e-005
    53	1.52437e-007	2.0141e-005	2.02935e-005
    54	1.5259e-007	2.01411e-005	2.02937e-005
    55	1.5275e-007	2.01412e-005	2.02939e-005
    56	1.52912e-007	2.01413e-005	2.02942e-005
    57	1.53303e-007	2.01413e-005	2.02946e-005
    58	1.51793e-007	2.01414e-005	2.02932e-005
    59	1.51963e-007	2.01415e-005	2.02935e-005
    60	1.52135e-007	2.01416e-005	2.02937e-005
    61	1.52309e-007	2.01417e-005	2.0294e-005
    62	1.52486e-007	2.01417e-005	2.02942e-005
    63	1.52665e-007	2.01418e-005	2.02945e-005
    64	1.52846e-007	2.01419e-005	2.02948e-005
    65	1.53029e-007	2.0142e-005	2.0295e-005
    66	1.53214e-007	2.01421e-005	2.02953e-005
    67	1.53401e-007	2.01421e-005	2.02955e-005
    68	1.5359e-007	2.01422e-005	2.02958e-005
    69	1.53781e-007	2.01423e-005	2.02961e-005
    70	1.54474e-007	2.01424e-005	2.02969e-005
    71	1.54551e-007	2.01425e-005	2.0297e-005
    72	1.54626e-007	2.01425e-005	2.02972e-005
    73	1.547e-007	2.01426e-005	2.02973e-005
    74	1.54772e-007	2.01427e-005	2.02975e-005
    75	1.54843e-007	2.01428e-005	2.02976e-005
    76	1.54917e-007	2.01429e-005	2.02978e-005
    77	1.5499e-007	2.01429e-005	2.02979e-005
    78	1.55063e-007	2.0143e-005	2.02981e-005
    79	1.55137e-007	2.01431e-005	2.02982e-005
    80	1.5521e-007	2.01432e-005	2.02984e-005
    81	1.55283e-007	2.01432e-005	2.02985e-005
    82	1.55357e-007	2.01433e-005	2.02987e-005
    83	1.55432e-007	2.01434e-005	2.02988e-005
    84	1.55509e-007	2.01435e-005	2.0299e-005
    85	1.55586e-007	2.01436e-005	2.02991e-005
    86	1.55664e-007	2.01436e-005	2.02993e-005
    87	1.55713e-007	2.01437e-005	2.02994e-005
    88	1.5579e-007	2.01438e-005	2.02996e-005
    89	1.55868e-007	2.01439e-005	2.02997e-005
    90	1.55913e-007	2.01439e-005	2.02999e-005
    91	1.56027e-007	2.0144e-005	2.03e-005
    92	1.5614e-007	2.01441e-005	2.03002e-005
    93	1.56253e-007	2.01442e-005	2.03004e-005
    94	1.56365e-007	2.01442e-005	2.03006e-005
    95	1.56477e-007	2.01443e-005	2.03008e-005
    96	1.56588e-007	2.01444e-005	2.0301e-005
    97	1.56699e-007	2.01445e-005	2.03012e-005
    98	1.56805e-007	2.01445e-005	2.03014e-005
    99	1.56911e-007	2.01446e-005	2.03015e-005
   100	1.57016e-007	2.01447e-005	2.03017e-005
   101	1.562e-007	2.01448e-005	2.0301e-005

Measurement: tr2
  step	tr2	FROM	TO
     1	4.44971e-007	6.13959e-005	6.18409e-005
     2	4.41351e-007	6.13969e-005	6.18382e-005
     3	4.44539e-007	6.13965e-005	6.18411e-005
     4	4.35379e-007	6.13964e-005	6.18318e-005
     5	4.4185e-007	6.13974e-005	6.18392e-005
     6	4.41054e-007	6.13967e-005	6.18377e-005
     7	4.40581e-007	6.13969e-005	6.18375e-005
     8	4.43122e-007	6.13974e-005	6.18405e-005
     9	4.42477e-007	6.13976e-005	6.18401e-005
    10	4.40858e-007	6.13979e-005	6.18388e-005
    11	4.40364e-007	6.13977e-005	6.1838e-005
    12	4.39572e-007	6.13979e-005	6.18375e-005
    13	4.30892e-007	6.13983e-005	6.18292e-005
    14	4.31105e-007	6.13988e-005	6.18299e-005
    15	4.32766e-007	6.13983e-005	6.1831e-005
    16	4.33816e-007	6.13988e-005	6.18327e-005
    17	4.30365e-007	6.13996e-005	6.183e-005
    18	4.30003e-007	6.13993e-005	6.18293e-005
    19	4.36764e-007	6.13992e-005	6.1836e-005
    20	4.32326e-007	6.13994e-005	6.18317e-005
    21	4.34526e-007	6.13998e-005	6.18344e-005
    22	4.30714e-007	6.13998e-005	6.18306e-005
    23	4.38471e-007	6.14004e-005	6.18388e-005
    24	4.33516e-007	6.14001e-005	6.18337e-005
    25	4.37268e-007	6.14014e-005	6.18387e-005
    26	4.29603e-007	6.14006e-005	6.18302e-005
    27	4.38121e-007	6.1402e-005	6.18401e-005
    28	4.29858e-007	6.14014e-005	6.18313e-005
    29	4.38018e-007	6.14022e-005	6.18402e-005
    30	4.46544e-007	6.14025e-005	6.1849e-005
    31	4.31448e-007	6.14019e-005	6.18334e-005
    32	4.36631e-007	6.14033e-005	6.18399e-005
    33	4.35635e-007	6.1403e-005	6.18387e-005
    34	4.28719e-007	6.14026e-005	6.18313e-005
    35	4.29449e-007	6.14031e-005	6.18325e-005
    36	4.29534e-007	6.14033e-005	6.18329e-005
    37	4.35732e-007	6.14037e-005	6.18394e-005
    38	4.31795e-007	6.14037e-005	6.18355e-005
    39	4.33446e-007	6.14044e-005	6.18378e-005
    40	4.36814e-007	6.14048e-005	6.18416e-005
    41	4.36065e-007	6.14051e-005	6.18411e-005
    42	4.3471e-007	6.14049e-005	6.18396e-005
    43	4.32599e-007	6.14053e-005	6.18379e-005
    44	4.38217e-007	6.14059e-005	6.18442e-005
    45	4.32013e-007	6.14055e-005	6.18375e-005
    46	4.3201e-007	6.14058e-005	6.18378e-005
    47	4.45788e-007	6.14061e-005	6.18519e-005
    48	4.33142e-007	6.14064e-005	6.18395e-005
    49	4.3111e-007	6.14066e-005	6.18377e-005
    50	4.40764e-007	6.1407e-005	6.18478e-005
    51	4.43156e-007	6.14073e-005	6.18505e-005
    52	4.28055e-007	6.14072e-005	6.18352e-005
    53	4.39251e-007	6.14076e-005	6.18468e-005
    54	4.38016e-007	6.14082e-005	6.18462e-005
    55	4.39084e-007	6.14089e-005	6.1848e-005
    56	4.38484e-007	6.14085e-005	6.1847e-005
    57	4.44633e-007	6.14087e-005	6.18533e-005
    58	4.30021e-007	6.14091e-005	6.18391e-005
    59	4.42686e-007	6.14095e-005	6.18522e-005
    60	4.3106e-007	6.14094e-005	6.18405e-005
    61	4.45912e-007	6.14097e-005	6.18556e-005
    62	4.45036e-007	6.141e-005	6.1855e-005
    63	4.35769e-007	6.14098e-005	6.18455e-005
    64	4.32764e-007	6.141e-005	6.18427e-005
    65	4.32597e-007	6.14109e-005	6.18435e-005
    66	4.32792e-007	6.14106e-005	6.18434e-005
    67	4.4031e-007	6.14115e-005	6.18518e-005
    68	4.30562e-007	6.14113e-005	6.18419e-005
    69	4.28988e-007	6.14118e-005	6.18408e-005
    70	4.32237e-007	6.14119e-005	6.18441e-005
    71	4.38799e-007	6.14127e-005	6.18515e-005
    72	4.3224e-007	6.14123e-005	6.18446e-005
    73	4.28646e-007	6.14126e-005	6.18412e-005
    74	4.33083e-007	6.1413e-005	6.18461e-005
    75	4.3484e-007	6.14135e-005	6.18483e-005
    76	4.34571e-007	6.14138e-005	6.18484e-005
    77	4.44694e-007	6.14143e-005	6.1859e-005
    78	4.37974e-007	6.1414e-005	6.1852e-005
    79	4.37717e-007	6.14141e-005	6.18518e-005
    80	4.29793e-007	6.14141e-005	6.18439e-005
    81	4.32022e-007	6.14145e-005	6.18465e-005
    82	4.35796e-007	6.14153e-005	6.18511e-005
    83	4.36354e-007	6.14155e-005	6.18518e-005
    84	4.32706e-007	6.14157e-005	6.18484e-005
    85	4.30648e-007	6.1416e-005	6.18466e-005
    86	4.30992e-007	6.14163e-005	6.18473e-005
    87	4.29293e-007	6.14162e-005	6.18455e-005
    88	4.34759e-007	6.14168e-005	6.18516e-005
    89	4.35613e-007	6.14171e-005	6.18527e-005
    90	4.3511e-007	6.14175e-005	6.18526e-005
    91	4.34827e-007	6.14179e-005	6.18527e-005
    92	4.41471e-007	6.14182e-005	6.18597e-005
    93	4.407e-007	6.14186e-005	6.18593e-005
    94	4.34871e-007	6.14186e-005	6.18535e-005
    95	4.37744e-007	6.14191e-005	6.18568e-005
    96	4.32672e-007	6.1419e-005	6.18516e-005
    97	4.37072e-007	6.14196e-005	6.18567e-005
    98	4.2798e-007	6.14196e-005	6.18475e-005
    99	4.30755e-007	6.14197e-005	6.18504e-005
   100	4.3691e-007	6.14205e-005	6.18574e-005
   101	4.38188e-007	6.14206e-005	6.18588e-005

Measurement: vth
  step	v(n004)	at
     1	2.66435	2.01953e-005
     2	2.66589	2.01954e-005
     3	2.66741	2.01956e-005
     4	2.66891	2.01957e-005
     5	2.67039	2.01958e-005
     6	2.67186	2.01959e-005
     7	2.67332	2.0196e-005
     8	2.67475	2.01962e-005
     9	2.67618	2.01963e-005
    10	2.67759	2.01964e-005
    11	2.67901	2.01965e-005
    12	2.68039	2.01966e-005
    13	2.68177	2.01967e-005
    14	2.68313	2.01968e-005
    15	2.68441	2.0197e-005
    16	2.68574	2.01971e-005
    17	2.68707	2.01972e-005
    18	2.68838	2.01973e-005
    19	2.68968	2.01974e-005
    20	2.69072	2.01977e-005
    21	2.69197	2.01978e-005
    22	2.6932	2.01979e-005
    23	2.69456	2.01981e-005
    24	2.69565	2.01982e-005
    25	2.69686	2.01983e-005
    26	2.69806	2.01985e-005
    27	2.69925	2.01986e-005
    28	2.70044	2.01987e-005
    29	2.70161	2.01989e-005
    30	2.70278	2.0199e-005
    31	2.70394	2.01991e-005
    32	2.70509	2.01992e-005
    33	2.70623	2.01994e-005
    34	2.70737	2.01995e-005
    35	2.7085	2.01996e-005
    36	2.70962	2.01997e-005
    37	2.71074	2.01999e-005
    38	2.71185	2.02e-005
    39	2.71295	2.02001e-005
    40	2.71404	2.02002e-005
    41	2.71513	2.02004e-005
    42	2.71622	2.02005e-005
    43	2.7173	2.02006e-005
    44	2.71837	2.02008e-005
    45	2.71943	2.02009e-005
    46	2.72049	2.0201e-005
    47	2.72154	2.02011e-005
    48	2.72259	2.02013e-005
    49	2.72363	2.02014e-005
    50	2.72467	2.02015e-005
    51	2.7257	2.02017e-005
    52	2.72673	2.02018e-005
    53	2.72775	2.02019e-005
    54	2.72876	2.0202e-005
    55	2.72977	2.02022e-005
    56	2.73077	2.02023e-005
    57	2.73177	2.02024e-005
    58	2.73277	2.02026e-005
    59	2.73377	2.02027e-005
    60	2.73476	2.02028e-005
    61	2.73575	2.02029e-005
    62	2.73673	2.02031e-005
    63	2.73771	2.02032e-005
    64	2.73868	2.02033e-005
    65	2.73965	2.02035e-005
    66	2.74062	2.02036e-005
    67	2.74158	2.02037e-005
    68	2.74254	2.02039e-005
    69	2.74349	2.0204e-005
    70	2.74454	2.02039e-005
    71	2.7455	2.0204e-005
    72	2.74646	2.02041e-005
    73	2.74741	2.02042e-005
    74	2.74835	2.02043e-005
    75	2.74929	2.02044e-005
    76	2.75023	2.02045e-005
    77	2.75117	2.02047e-005
    78	2.7521	2.02048e-005
    79	2.75303	2.02049e-005
    80	2.75396	2.0205e-005
    81	2.75488	2.02051e-005
    82	2.7558	2.02052e-005
    83	2.75672	2.02053e-005
    84	2.75763	2.02054e-005
    85	2.75854	2.02055e-005
    86	2.75945	2.02056e-005
    87	2.76026	2.02058e-005
    88	2.76117	2.02059e-005
    89	2.76206	2.0206e-005
    90	2.76296	2.02061e-005
    91	2.76386	2.02062e-005
    92	2.76475	2.02063e-005
    93	2.76563	2.02064e-005
    94	2.76652	2.02065e-005
    95	2.7674	2.02066e-005
    96	2.76828	2.02067e-005
    97	2.76916	2.02068e-005
    98	2.77003	2.02069e-005
    99	2.77089	2.02071e-005
   100	2.77176	2.02072e-005
   101	2.77262	2.02073e-005


Date: Tue Mar 22 14:30:42 2022
Total elapsed time: 1.231 seconds.

tnom = 27
temp = 27
method = modified trap
totiter = 2734
traniter = 2705
tranpoints = 1152
accept = 1115
rejected = 37
matrix size = 11
fillins = 0
solver = Normal
Matrix Compiler1: 674 bytes object code size  0.1/0.1/[0.1]
Matrix Compiler2: off  [0.1]/0.1/0.1

