Circuit: * C:\Users\user\Documents\LTspiceXVII\file\Montecarlo\monte_SiC.asc

Direct Newton iteration for .op point succeeded.
.step tol1=0
.step tol1=0.01
.step tol1=0.02
.step tol1=0.03
.step tol1=0.04
.step tol1=0.05
.step tol1=0.06
.step tol1=0.07
.step tol1=0.08
.step tol1=0.09
.step tol1=0.1
.step tol1=0.11
.step tol1=0.12
.step tol1=0.13
.step tol1=0.14
.step tol1=0.15
.step tol1=0.16
.step tol1=0.17
.step tol1=0.18
.step tol1=0.19
.step tol1=0.2
.step tol1=0.21
.step tol1=0.22
.step tol1=0.23
.step tol1=0.24
.step tol1=0.25
.step tol1=0.26
.step tol1=0.27
.step tol1=0.28
.step tol1=0.29
.step tol1=0.3
.step tol1=0.31
.step tol1=0.32
.step tol1=0.33
.step tol1=0.34
.step tol1=0.35
.step tol1=0.36
.step tol1=0.37
.step tol1=0.38
.step tol1=0.39
.step tol1=0.4
.step tol1=0.41
.step tol1=0.42
.step tol1=0.43
.step tol1=0.44
.step tol1=0.45
.step tol1=0.46
.step tol1=0.47
.step tol1=0.48
.step tol1=0.49
.step tol1=0.5
.step tol1=0.51
.step tol1=0.52
.step tol1=0.53
.step tol1=0.54
.step tol1=0.55
.step tol1=0.56
.step tol1=0.57
.step tol1=0.58
.step tol1=0.59
.step tol1=0.6
.step tol1=0.61
.step tol1=0.62
.step tol1=0.63
.step tol1=0.64
.step tol1=0.65
.step tol1=0.66
.step tol1=0.67
.step tol1=0.68
.step tol1=0.69
.step tol1=0.7
.step tol1=0.71
.step tol1=0.72
.step tol1=0.73
.step tol1=0.74
.step tol1=0.75
.step tol1=0.76
.step tol1=0.77
.step tol1=0.78
.step tol1=0.79
.step tol1=0.8
.step tol1=0.81
.step tol1=0.82
.step tol1=0.83
.step tol1=0.84
.step tol1=0.85
.step tol1=0.86
.step tol1=0.87
.step tol1=0.88
.step tol1=0.89
.step tol1=0.9
.step tol1=0.91
.step tol1=0.92
.step tol1=0.93
.step tol1=0.94
.step tol1=0.95
.step tol1=0.96
.step tol1=0.97
.step tol1=0.98
.step tol1=0.99
.step tol1=1


Measurement: imax
  step	MAX(-i(v1))	FROM	TO
     1	9.80646	0	0.0001
     2	9.80646	0	0.0001
     3	9.80646	0	0.0001
     4	9.80646	0	0.0001
     5	9.80646	0	0.0001
     6	9.80646	0	0.0001
     7	9.80646	0	0.0001
     8	9.80646	0	0.0001
     9	9.80646	0	0.0001
    10	9.80646	0	0.0001
    11	9.80646	0	0.0001
    12	9.80646	0	0.0001
    13	9.80646	0	0.0001
    14	9.80646	0	0.0001
    15	9.80646	0	0.0001
    16	9.80646	0	0.0001
    17	9.80646	0	0.0001
    18	9.80646	0	0.0001
    19	9.80646	0	0.0001
    20	9.80646	0	0.0001
    21	9.80646	0	0.0001
    22	9.80646	0	0.0001
    23	9.80646	0	0.0001
    24	9.80646	0	0.0001
    25	9.80646	0	0.0001
    26	9.80646	0	0.0001
    27	9.80646	0	0.0001
    28	9.80646	0	0.0001
    29	9.80646	0	0.0001
    30	9.80646	0	0.0001
    31	9.80646	0	0.0001
    32	9.80646	0	0.0001
    33	9.80646	0	0.0001
    34	9.80646	0	0.0001
    35	9.80646	0	0.0001
    36	9.80646	0	0.0001
    37	9.80646	0	0.0001
    38	9.80643	0	0.0001
    39	9.80643	0	0.0001
    40	9.80646	0	0.0001
    41	9.80646	0	0.0001
    42	9.80646	0	0.0001
    43	9.80643	0	0.0001
    44	9.80643	0	0.0001
    45	9.80643	0	0.0001
    46	9.80643	0	0.0001
    47	9.80643	0	0.0001
    48	9.80643	0	0.0001
    49	9.80646	0	0.0001
    50	9.80643	0	0.0001
    51	9.80646	0	0.0001
    52	9.80646	0	0.0001
    53	9.80646	0	0.0001
    54	9.80646	0	0.0001
    55	9.80646	0	0.0001
    56	9.80646	0	0.0001
    57	9.80646	0	0.0001
    58	9.80646	0	0.0001
    59	9.80646	0	0.0001
    60	9.80646	0	0.0001
    61	9.80646	0	0.0001
    62	9.80643	0	0.0001
    63	9.80643	0	0.0001
    64	9.80643	0	0.0001
    65	9.80643	0	0.0001
    66	9.80646	0	0.0001
    67	9.80646	0	0.0001
    68	9.80643	0	0.0001
    69	9.80643	0	0.0001
    70	9.80643	0	0.0001
    71	9.80643	0	0.0001
    72	9.80643	0	0.0001
    73	9.80643	0	0.0001
    74	9.80643	0	0.0001
    75	9.80643	0	0.0001
    76	9.80643	0	0.0001
    77	9.80643	0	0.0001
    78	9.80643	0	0.0001
    79	9.80643	0	0.0001
    80	9.80643	0	0.0001
    81	9.80643	0	0.0001
    82	9.80643	0	0.0001
    83	9.80643	0	0.0001
    84	9.80643	0	0.0001
    85	9.80643	0	0.0001
    86	9.80643	0	0.0001
    87	9.80643	0	0.0001
    88	9.80643	0	0.0001
    89	9.80643	0	0.0001
    90	9.80643	0	0.0001
    91	9.80643	0	0.0001
    92	9.80643	0	0.0001
    93	9.80643	0	0.0001
    94	9.80643	0	0.0001
    95	9.80643	0	0.0001
    96	9.80646	0	0.0001
    97	9.80646	0	0.0001
    98	9.80646	0	0.0001
    99	9.80646	0	0.0001
   100	9.80643	0	0.0001
   101	9.80643	0	0.0001

Measurement: tr1
  step	tr1	FROM	TO
     1	1.8838e-007	2.01446e-005	2.0333e-005
     2	1.88382e-007	2.01446e-005	2.0333e-005
     3	1.88384e-007	2.01446e-005	2.0333e-005
     4	1.88387e-007	2.01446e-005	2.0333e-005
     5	1.88389e-007	2.01446e-005	2.0333e-005
     6	1.88392e-007	2.01446e-005	2.0333e-005
     7	1.88394e-007	2.01446e-005	2.0333e-005
     8	1.88396e-007	2.01446e-005	2.0333e-005
     9	1.88399e-007	2.01446e-005	2.0333e-005
    10	1.88401e-007	2.01446e-005	2.0333e-005
    11	1.88403e-007	2.01446e-005	2.0333e-005
    12	1.88406e-007	2.01446e-005	2.0333e-005
    13	1.88408e-007	2.01446e-005	2.0333e-005
    14	1.8841e-007	2.01446e-005	2.0333e-005
    15	1.88413e-007	2.01446e-005	2.0333e-005
    16	1.88415e-007	2.01446e-005	2.0333e-005
    17	1.88417e-007	2.01446e-005	2.0333e-005
    18	1.8842e-007	2.01446e-005	2.0333e-005
    19	1.88422e-007	2.01446e-005	2.0333e-005
    20	1.88424e-007	2.01446e-005	2.0333e-005
    21	1.88427e-007	2.01446e-005	2.0333e-005
    22	1.88429e-007	2.01446e-005	2.0333e-005
    23	1.88432e-007	2.01446e-005	2.0333e-005
    24	1.88434e-007	2.01446e-005	2.0333e-005
    25	1.88436e-007	2.01446e-005	2.0333e-005
    26	1.88466e-007	2.01446e-005	2.03331e-005
    27	1.88469e-007	2.01446e-005	2.03331e-005
    28	1.88471e-007	2.01446e-005	2.03331e-005
    29	1.88474e-007	2.01446e-005	2.03331e-005
    30	1.88476e-007	2.01446e-005	2.03331e-005
    31	1.88479e-007	2.01446e-005	2.03331e-005
    32	1.88481e-007	2.01446e-005	2.03331e-005
    33	1.88484e-007	2.01446e-005	2.03331e-005
    34	1.88486e-007	2.01446e-005	2.03331e-005
    35	1.88489e-007	2.01446e-005	2.03331e-005
    36	1.88492e-007	2.01446e-005	2.03331e-005
    37	1.88494e-007	2.01446e-005	2.03331e-005
    38	1.88495e-007	2.01446e-005	2.03331e-005
    39	1.88498e-007	2.01446e-005	2.03331e-005
    40	1.88502e-007	2.01446e-005	2.03331e-005
    41	1.88504e-007	2.01446e-005	2.03331e-005
    42	1.88507e-007	2.01446e-005	2.03331e-005
    43	1.88508e-007	2.01446e-005	2.03331e-005
    44	1.8851e-007	2.01446e-005	2.03331e-005
    45	1.88513e-007	2.01446e-005	2.03331e-005
    46	1.88516e-007	2.01446e-005	2.03331e-005
    47	1.88518e-007	2.01446e-005	2.03331e-005
    48	1.88521e-007	2.01446e-005	2.03331e-005
    49	1.88525e-007	2.01446e-005	2.03331e-005
    50	1.88526e-007	2.01446e-005	2.03331e-005
    51	1.8853e-007	2.01446e-005	2.03331e-005
    52	1.88533e-007	2.01446e-005	2.03331e-005
    53	1.88535e-007	2.01446e-005	2.03331e-005
    54	1.88538e-007	2.01446e-005	2.03331e-005
    55	1.8854e-007	2.01446e-005	2.03331e-005
    56	1.88543e-007	2.01446e-005	2.03331e-005
    57	1.88546e-007	2.01446e-005	2.03331e-005
    58	1.88548e-007	2.01446e-005	2.03331e-005
    59	1.88551e-007	2.01446e-005	2.03331e-005
    60	1.88554e-007	2.01446e-005	2.03331e-005
    61	1.88556e-007	2.01446e-005	2.03331e-005
    62	1.88557e-007	2.01446e-005	2.03331e-005
    63	1.8856e-007	2.01446e-005	2.03331e-005
    64	1.88563e-007	2.01446e-005	2.03331e-005
    65	1.88565e-007	2.01446e-005	2.03332e-005
    66	1.88569e-007	2.01446e-005	2.03332e-005
    67	1.88572e-007	2.01446e-005	2.03332e-005
    68	1.88573e-007	2.01446e-005	2.03332e-005
    69	1.88576e-007	2.01446e-005	2.03332e-005
    70	1.88578e-007	2.01446e-005	2.03332e-005
    71	1.88581e-007	2.01446e-005	2.03332e-005
    72	1.88584e-007	2.01446e-005	2.03332e-005
    73	1.88586e-007	2.01446e-005	2.03332e-005
    74	1.88589e-007	2.01446e-005	2.03332e-005
    75	1.88592e-007	2.01446e-005	2.03332e-005
    76	1.88594e-007	2.01446e-005	2.03332e-005
    77	1.88597e-007	2.01446e-005	2.03332e-005
    78	1.886e-007	2.01446e-005	2.03332e-005
    79	1.88602e-007	2.01446e-005	2.03332e-005
    80	1.88605e-007	2.01446e-005	2.03332e-005
    81	1.88608e-007	2.01446e-005	2.03332e-005
    82	1.88611e-007	2.01446e-005	2.03332e-005
    83	1.88613e-007	2.01446e-005	2.03332e-005
    84	1.88616e-007	2.01446e-005	2.03332e-005
    85	1.88619e-007	2.01446e-005	2.03332e-005
    86	1.88621e-007	2.01446e-005	2.03332e-005
    87	1.88624e-007	2.01446e-005	2.03332e-005
    88	1.88627e-007	2.01446e-005	2.03332e-005
    89	1.8863e-007	2.01446e-005	2.03332e-005
    90	1.88632e-007	2.01446e-005	2.03332e-005
    91	1.88635e-007	2.01446e-005	2.03332e-005
    92	1.88638e-007	2.01446e-005	2.03332e-005
    93	1.8864e-007	2.01446e-005	2.03332e-005
    94	1.88643e-007	2.01446e-005	2.03332e-005
    95	1.88646e-007	2.01446e-005	2.03332e-005
    96	1.8865e-007	2.01446e-005	2.03332e-005
    97	1.88653e-007	2.01446e-005	2.03332e-005
    98	1.88656e-007	2.01446e-005	2.03332e-005
    99	1.88658e-007	2.01446e-005	2.03332e-005
   100	1.8866e-007	2.01446e-005	2.03332e-005
   101	1.88662e-007	2.01446e-005	2.03332e-005

Measurement: tr2
  step	tr2	FROM	TO
     1	4.24943e-007	6.12087e-005	6.16336e-005
     2	4.17118e-007	6.12098e-005	6.16269e-005
     3	4.18277e-007	6.1211e-005	6.16293e-005
     4	4.18139e-007	6.12122e-005	6.16304e-005
     5	4.17274e-007	6.12134e-005	6.16307e-005
     6	4.17654e-007	6.12147e-005	6.16323e-005
     7	4.22536e-007	6.12159e-005	6.16385e-005
     8	4.16055e-007	6.12171e-005	6.16332e-005
     9	4.17126e-007	6.12185e-005	6.16356e-005
    10	4.2191e-007	6.12197e-005	6.16416e-005
    11	4.20563e-007	6.12209e-005	6.16415e-005
    12	4.24979e-007	6.12222e-005	6.16472e-005
    13	4.24482e-007	6.12234e-005	6.16479e-005
    14	4.24452e-007	6.12247e-005	6.16491e-005
    15	4.24629e-007	6.12259e-005	6.16505e-005
    16	4.24738e-007	6.12271e-005	6.16519e-005
    17	4.18507e-007	6.12284e-005	6.16469e-005
    18	4.17758e-007	6.12296e-005	6.16474e-005
    19	4.25037e-007	6.12309e-005	6.1656e-005
    20	4.25189e-007	6.12323e-005	6.16575e-005
    21	4.25225e-007	6.12336e-005	6.16588e-005
    22	4.25134e-007	6.12348e-005	6.16599e-005
    23	4.25158e-007	6.12361e-005	6.16612e-005
    24	4.25158e-007	6.12374e-005	6.16625e-005
    25	4.24712e-007	6.12387e-005	6.16634e-005
    26	4.2487e-007	6.12399e-005	6.16648e-005
    27	4.24969e-007	6.12412e-005	6.16662e-005
    28	4.19515e-007	6.12426e-005	6.16621e-005
    29	4.18525e-007	6.12439e-005	6.16624e-005
    30	4.24343e-007	6.12453e-005	6.16696e-005
    31	4.20805e-007	6.12465e-005	6.16673e-005
    32	4.22543e-007	6.12479e-005	6.16704e-005
    33	4.2491e-007	6.12493e-005	6.16742e-005
    34	4.16612e-007	6.12506e-005	6.16672e-005
    35	4.11273e-007	6.12518e-005	6.16631e-005
    36	4.18574e-007	6.12531e-005	6.16716e-005
    37	4.17703e-007	6.12544e-005	6.16721e-005
    38	4.16947e-007	6.12565e-005	6.16734e-005
    39	4.14135e-007	6.12577e-005	6.16718e-005
    40	4.15551e-007	6.12594e-005	6.16749e-005
    41	4.11468e-007	6.12606e-005	6.1672e-005
    42	4.2007e-007	6.12616e-005	6.16817e-005
    43	4.13076e-007	6.1263e-005	6.16761e-005
    44	4.15952e-007	6.12646e-005	6.16806e-005
    45	4.24152e-007	6.1266e-005	6.16902e-005
    46	4.19006e-007	6.12673e-005	6.16863e-005
    47	4.14388e-007	6.12688e-005	6.16832e-005
    48	4.20203e-007	6.12704e-005	6.16906e-005
    49	4.18497e-007	6.12715e-005	6.169e-005
    50	4.2506e-007	6.12732e-005	6.16982e-005
    51	4.13848e-007	6.12745e-005	6.16883e-005
    52	4.24629e-007	6.12759e-005	6.17005e-005
    53	4.12404e-007	6.12774e-005	6.16898e-005
    54	4.15559e-007	6.12789e-005	6.16945e-005
    55	4.1866e-007	6.128e-005	6.16987e-005
    56	4.25091e-007	6.12816e-005	6.17067e-005
    57	4.18412e-007	6.12833e-005	6.17017e-005
    58	4.16445e-007	6.12847e-005	6.17011e-005
    59	4.14898e-007	6.12861e-005	6.1701e-005
    60	4.16357e-007	6.12873e-005	6.17036e-005
    61	4.15655e-007	6.12891e-005	6.17047e-005
    62	4.19411e-007	6.12903e-005	6.17097e-005
    63	4.19724e-007	6.12914e-005	6.17111e-005
    64	4.13823e-007	6.12937e-005	6.17075e-005
    65	4.15967e-007	6.1295e-005	6.1711e-005
    66	4.15626e-007	6.12963e-005	6.17119e-005
    67	4.11175e-007	6.12981e-005	6.17093e-005
    68	4.17511e-007	6.1299e-005	6.17166e-005
    69	4.12225e-007	6.13006e-005	6.17128e-005
    70	4.19068e-007	6.13019e-005	6.1721e-005
    71	4.13532e-007	6.13036e-005	6.17171e-005
    72	4.14703e-007	6.13053e-005	6.172e-005
    73	4.19103e-007	6.13071e-005	6.17262e-005
    74	4.11572e-007	6.13084e-005	6.172e-005
    75	4.18078e-007	6.13099e-005	6.1728e-005
    76	4.16088e-007	6.13113e-005	6.17274e-005
    77	4.1565e-007	6.13132e-005	6.17288e-005
    78	4.23871e-007	6.13145e-005	6.17384e-005
    79	4.13769e-007	6.13161e-005	6.17299e-005
    80	4.19734e-007	6.13176e-005	6.17373e-005
    81	4.15261e-007	6.13192e-005	6.17345e-005
    82	4.1642e-007	6.13211e-005	6.17375e-005
    83	4.18648e-007	6.13224e-005	6.17411e-005
    84	4.15768e-007	6.1324e-005	6.17398e-005
    85	4.12326e-007	6.13259e-005	6.17382e-005
    86	4.19039e-007	6.13272e-005	6.17463e-005
    87	4.17305e-007	6.13291e-005	6.17464e-005
    88	4.15831e-007	6.13307e-005	6.17465e-005
    89	4.19681e-007	6.13327e-005	6.17524e-005
    90	4.25014e-007	6.13339e-005	6.1759e-005
    91	4.10433e-007	6.13359e-005	6.17464e-005
    92	4.13636e-007	6.13374e-005	6.17511e-005
    93	4.13417e-007	6.1339e-005	6.17524e-005
    94	4.11274e-007	6.13404e-005	6.17516e-005
    95	4.17162e-007	6.13423e-005	6.17595e-005
    96	4.15843e-007	6.13442e-005	6.17601e-005
    97	4.18166e-007	6.13451e-005	6.17633e-005
    98	4.21948e-007	6.13477e-005	6.17696e-005
    99	4.14625e-007	6.13494e-005	6.1764e-005
   100	4.18191e-007	6.13511e-005	6.17693e-005
   101	4.14876e-007	6.13526e-005	6.17675e-005

Measurement: vth
  step	v(n004)	at
     1	1.88283	2.01041e-005
     2	1.88283	2.01041e-005
     3	1.88283	2.01041e-005
     4	1.88283	2.01041e-005
     5	1.88283	2.01041e-005
     6	1.88283	2.01041e-005
     7	1.88283	2.01041e-005
     8	1.88283	2.01041e-005
     9	1.88283	2.01041e-005
    10	1.88283	2.01041e-005
    11	1.88283	2.01041e-005
    12	1.88283	2.01041e-005
    13	1.88283	2.01041e-005
    14	1.88283	2.01041e-005
    15	1.88283	2.01041e-005
    16	1.88283	2.01041e-005
    17	1.88283	2.01041e-005
    18	1.88283	2.01041e-005
    19	1.88283	2.01041e-005
    20	1.88283	2.01041e-005
    21	1.88283	2.01041e-005
    22	1.88283	2.01041e-005
    23	1.88283	2.01041e-005
    24	1.88283	2.01041e-005
    25	1.88283	2.01041e-005
    26	1.88283	2.01041e-005
    27	1.88283	2.01041e-005
    28	1.88283	2.01041e-005
    29	1.88283	2.01041e-005
    30	1.88283	2.01041e-005
    31	1.88283	2.01041e-005
    32	1.88283	2.01041e-005
    33	1.88283	2.01041e-005
    34	1.88283	2.01041e-005
    35	1.88283	2.01041e-005
    36	1.88283	2.01041e-005
    37	1.88283	2.01041e-005
    38	1.88283	2.01041e-005
    39	1.88283	2.01041e-005
    40	1.88283	2.01041e-005
    41	1.88283	2.01041e-005
    42	1.88283	2.01041e-005
    43	1.88283	2.01041e-005
    44	1.88283	2.01041e-005
    45	1.88283	2.01041e-005
    46	1.88283	2.01041e-005
    47	1.88283	2.01041e-005
    48	1.88283	2.01041e-005
    49	1.88283	2.01041e-005
    50	1.88283	2.01041e-005
    51	1.88283	2.01041e-005
    52	1.88283	2.01041e-005
    53	1.88283	2.01041e-005
    54	1.88283	2.01041e-005
    55	1.88283	2.01041e-005
    56	1.88283	2.01041e-005
    57	1.88283	2.01041e-005
    58	1.88283	2.01041e-005
    59	1.88283	2.01041e-005
    60	1.88283	2.01041e-005
    61	1.88283	2.01041e-005
    62	1.88283	2.01041e-005
    63	1.88283	2.01041e-005
    64	1.88283	2.01041e-005
    65	1.88283	2.01041e-005
    66	1.88283	2.01041e-005
    67	1.88283	2.01041e-005
    68	1.88283	2.01041e-005
    69	1.88283	2.01041e-005
    70	1.88283	2.01041e-005
    71	1.88283	2.01041e-005
    72	1.88283	2.01041e-005
    73	1.88283	2.01041e-005
    74	1.88283	2.01041e-005
    75	1.88283	2.01041e-005
    76	1.88283	2.01041e-005
    77	1.88283	2.01041e-005
    78	1.88283	2.01041e-005
    79	1.88283	2.01041e-005
    80	1.88283	2.01041e-005
    81	1.88283	2.01041e-005
    82	1.88283	2.01041e-005
    83	1.88283	2.01041e-005
    84	1.88283	2.01041e-005
    85	1.88283	2.01041e-005
    86	1.88283	2.01041e-005
    87	1.88283	2.01041e-005
    88	1.88283	2.01041e-005
    89	1.88283	2.01041e-005
    90	1.88283	2.01041e-005
    91	1.88283	2.01041e-005
    92	1.88283	2.01041e-005
    93	1.88283	2.01041e-005
    94	1.88283	2.01041e-005
    95	1.88283	2.01041e-005
    96	1.88283	2.01041e-005
    97	1.88283	2.01041e-005
    98	1.88283	2.01041e-005
    99	1.88283	2.01041e-005
   100	1.88283	2.01041e-005
   101	1.88283	2.01041e-005


Date: Wed Mar 23 09:32:39 2022
Total elapsed time: 1.406 seconds.

tnom = 27
temp = 27
method = modified trap
totiter = 2323
traniter = 2293
tranpoints = 1114
accept = 1090
rejected = 24
matrix size = 11
fillins = 0
solver = Normal
Matrix Compiler1:      38 opcodes  0.1/[0.1]/0.1
Matrix Compiler2: 847 bytes object code size  0.1/0.1/[0.1]

