Circuit: * C:\Users\user\Documents\LTspiceXVII\file\Montecarlo\monte_SiC.asc

Direct Newton iteration for .op point succeeded.
.step tol1=0
.step tol1=0.01
.step tol1=0.02
.step tol1=0.03
.step tol1=0.04
.step tol1=0.05
.step tol1=0.06
.step tol1=0.07
.step tol1=0.08
.step tol1=0.09
.step tol1=0.1
.step tol1=0.11
.step tol1=0.12
.step tol1=0.13
.step tol1=0.14
.step tol1=0.15
.step tol1=0.16
.step tol1=0.17
.step tol1=0.18
.step tol1=0.19
.step tol1=0.2
.step tol1=0.21
.step tol1=0.22
.step tol1=0.23
.step tol1=0.24
.step tol1=0.25
.step tol1=0.26
.step tol1=0.27
.step tol1=0.28
.step tol1=0.29
.step tol1=0.3
.step tol1=0.31
.step tol1=0.32
.step tol1=0.33
.step tol1=0.34
.step tol1=0.35
.step tol1=0.36
.step tol1=0.37
.step tol1=0.38
.step tol1=0.39
.step tol1=0.4
.step tol1=0.41
.step tol1=0.42
.step tol1=0.43
.step tol1=0.44
.step tol1=0.45
.step tol1=0.46
.step tol1=0.47
.step tol1=0.48
.step tol1=0.49
.step tol1=0.5
.step tol1=0.51
.step tol1=0.52
.step tol1=0.53
.step tol1=0.54
.step tol1=0.55
.step tol1=0.56
.step tol1=0.57
.step tol1=0.58
.step tol1=0.59
.step tol1=0.6
.step tol1=0.61
.step tol1=0.62
.step tol1=0.63
.step tol1=0.64
.step tol1=0.65
.step tol1=0.66
.step tol1=0.67
.step tol1=0.68
.step tol1=0.69
.step tol1=0.7
.step tol1=0.71
.step tol1=0.72
.step tol1=0.73
.step tol1=0.74
.step tol1=0.75
.step tol1=0.76
.step tol1=0.77
.step tol1=0.78
.step tol1=0.79
.step tol1=0.8
.step tol1=0.81
.step tol1=0.82
.step tol1=0.83
.step tol1=0.84
.step tol1=0.85
.step tol1=0.86
.step tol1=0.87
.step tol1=0.88
.step tol1=0.89
.step tol1=0.9
.step tol1=0.91
.step tol1=0.92
.step tol1=0.93
.step tol1=0.94
.step tol1=0.95
.step tol1=0.96
.step tol1=0.97
.step tol1=0.98
.step tol1=0.99
.step tol1=1


Measurement: imax
  step	MAX(-i(v1))	FROM	TO
     1	0.998033	0	0.0001
     2	0.998033	0	0.0001
     3	0.998033	0	0.0001
     4	0.998033	0	0.0001
     5	0.998033	0	0.0001
     6	0.998033	0	0.0001
     7	0.998033	0	0.0001
     8	0.998033	0	0.0001
     9	0.998033	0	0.0001
    10	0.998033	0	0.0001
    11	0.998033	0	0.0001
    12	0.998033	0	0.0001
    13	0.998033	0	0.0001
    14	0.998033	0	0.0001
    15	0.998033	0	0.0001
    16	0.998033	0	0.0001
    17	0.998034	0	0.0001
    18	0.998034	0	0.0001
    19	0.998034	0	0.0001
    20	0.998034	0	0.0001
    21	0.998034	0	0.0001
    22	0.998034	0	0.0001
    23	0.998034	0	0.0001
    24	0.998034	0	0.0001
    25	0.998034	0	0.0001
    26	0.998034	0	0.0001
    27	0.998034	0	0.0001
    28	0.998034	0	0.0001
    29	0.998034	0	0.0001
    30	0.998034	0	0.0001
    31	0.998034	0	0.0001
    32	0.998034	0	0.0001
    33	0.998034	0	0.0001
    34	0.998034	0	0.0001
    35	0.998035	0	0.0001
    36	0.998035	0	0.0001
    37	0.998035	0	0.0001
    38	0.998035	0	0.0001
    39	0.998035	0	0.0001
    40	0.998035	0	0.0001
    41	0.998034	0	0.0001
    42	0.998035	0	0.0001
    43	0.998036	0	0.0001
    44	0.998036	0	0.0001
    45	0.998036	0	0.0001
    46	0.998036	0	0.0001
    47	0.998036	0	0.0001
    48	0.998034	0	0.0001
    49	0.998034	0	0.0001
    50	0.998034	0	0.0001
    51	0.998034	0	0.0001
    52	0.998033	0	0.0001
    53	0.998033	0	0.0001
    54	0.998033	0	0.0001
    55	0.998033	0	0.0001
    56	0.998033	0	0.0001
    57	0.998033	0	0.0001
    58	0.998036	0	0.0001
    59	0.998034	0	0.0001
    60	0.998036	0	0.0001
    61	0.998034	0	0.0001
    62	0.998034	0	0.0001
    63	0.998034	0	0.0001
    64	0.998034	0	0.0001
    65	0.998036	0	0.0001
    66	0.998034	0	0.0001
    67	0.998036	0	0.0001
    68	0.998036	0	0.0001
    69	0.998036	0	0.0001
    70	0.998036	0	0.0001
    71	0.998036	0	0.0001
    72	0.998036	0	0.0001
    73	0.998036	0	0.0001
    74	0.998036	0	0.0001
    75	0.998035	0	0.0001
    76	0.998035	0	0.0001
    77	0.998035	0	0.0001
    78	0.998035	0	0.0001
    79	0.998035	0	0.0001
    80	0.998035	0	0.0001
    81	0.998034	0	0.0001
    82	0.998034	0	0.0001
    83	0.998034	0	0.0001
    84	0.998034	0	0.0001
    85	0.998034	0	0.0001
    86	0.998034	0	0.0001
    87	0.998035	0	0.0001
    88	0.998034	0	0.0001
    89	0.998034	0	0.0001
    90	0.998034	0	0.0001
    91	0.998034	0	0.0001
    92	0.998034	0	0.0001
    93	0.998034	0	0.0001
    94	0.998034	0	0.0001
    95	0.998035	0	0.0001
    96	0.998035	0	0.0001
    97	0.998034	0	0.0001
    98	0.998035	0	0.0001
    99	0.998035	0	0.0001
   100	0.998034	0	0.0001
   101	0.998034	0	0.0001

Measurement: tr1
  step	tr1	FROM	TO
     1	1.46403e-007	2.01363e-005	2.02827e-005
     2	1.46402e-007	2.01363e-005	2.02827e-005
     3	1.46401e-007	2.01363e-005	2.02827e-005
     4	1.46399e-007	2.01363e-005	2.02827e-005
     5	1.46398e-007	2.01363e-005	2.02827e-005
     6	1.46397e-007	2.01362e-005	2.02826e-005
     7	1.46395e-007	2.01362e-005	2.02826e-005
     8	1.46394e-007	2.01362e-005	2.02826e-005
     9	1.46392e-007	2.01362e-005	2.02826e-005
    10	1.46391e-007	2.01362e-005	2.02826e-005
    11	1.4639e-007	2.01362e-005	2.02826e-005
    12	1.46388e-007	2.01362e-005	2.02826e-005
    13	1.46386e-007	2.01362e-005	2.02826e-005
    14	1.46385e-007	2.01362e-005	2.02826e-005
    15	1.46383e-007	2.01362e-005	2.02826e-005
    16	1.46382e-007	2.01362e-005	2.02826e-005
    17	1.4638e-007	2.01362e-005	2.02825e-005
    18	1.46379e-007	2.01362e-005	2.02825e-005
    19	1.46377e-007	2.01362e-005	2.02825e-005
    20	1.46375e-007	2.01361e-005	2.02825e-005
    21	1.46374e-007	2.01361e-005	2.02825e-005
    22	1.46372e-007	2.01361e-005	2.02825e-005
    23	1.4637e-007	2.01361e-005	2.02825e-005
    24	1.46369e-007	2.01361e-005	2.02825e-005
    25	1.46368e-007	2.01361e-005	2.02825e-005
    26	1.4637e-007	2.01361e-005	2.02825e-005
    27	1.46373e-007	2.01361e-005	2.02825e-005
    28	1.46375e-007	2.01361e-005	2.02824e-005
    29	1.46378e-007	2.01361e-005	2.02824e-005
    30	1.4638e-007	2.01361e-005	2.02824e-005
    31	1.46383e-007	2.0136e-005	2.02824e-005
    32	1.46385e-007	2.0136e-005	2.02824e-005
    33	1.46387e-007	2.0136e-005	2.02824e-005
    34	1.4639e-007	2.0136e-005	2.02824e-005
    35	1.46392e-007	2.0136e-005	2.02824e-005
    36	1.46394e-007	2.0136e-005	2.02824e-005
    37	1.46397e-007	2.0136e-005	2.02824e-005
    38	1.46399e-007	2.0136e-005	2.02824e-005
    39	1.46401e-007	2.01359e-005	2.02823e-005
    40	1.46403e-007	2.01359e-005	2.02823e-005
    41	1.46405e-007	2.01359e-005	2.02823e-005
    42	1.46407e-007	2.01359e-005	2.02823e-005
    43	1.4641e-007	2.01359e-005	2.02823e-005
    44	1.46411e-007	2.01359e-005	2.02823e-005
    45	1.46413e-007	2.01359e-005	2.02823e-005
    46	1.46415e-007	2.01359e-005	2.02823e-005
    47	1.46417e-007	2.01359e-005	2.02823e-005
    48	1.46418e-007	2.01358e-005	2.02823e-005
    49	1.4642e-007	2.01358e-005	2.02823e-005
    50	1.46422e-007	2.01358e-005	2.02822e-005
    51	1.46424e-007	2.01358e-005	2.02822e-005
    52	1.46425e-007	2.01358e-005	2.02822e-005
    53	1.46427e-007	2.01358e-005	2.02822e-005
    54	1.46429e-007	2.01358e-005	2.02822e-005
    55	1.4643e-007	2.01358e-005	2.02822e-005
    56	1.46432e-007	2.01358e-005	2.02822e-005
    57	1.46433e-007	2.01357e-005	2.02822e-005
    58	1.46436e-007	2.01357e-005	2.02822e-005
    59	1.46436e-007	2.01357e-005	2.02822e-005
    60	1.46439e-007	2.01357e-005	2.02821e-005
    61	1.46439e-007	2.01357e-005	2.02821e-005
    62	1.46441e-007	2.01357e-005	2.02821e-005
    63	1.46442e-007	2.01357e-005	2.02821e-005
    64	1.46443e-007	2.01357e-005	2.02821e-005
    65	1.46446e-007	2.01356e-005	2.02821e-005
    66	1.46446e-007	2.01356e-005	2.02821e-005
    67	1.46448e-007	2.01356e-005	2.02821e-005
    68	1.46449e-007	2.01356e-005	2.02821e-005
    69	1.4645e-007	2.01356e-005	2.02821e-005
    70	1.46452e-007	2.01356e-005	2.0282e-005
    71	1.46453e-007	2.01356e-005	2.0282e-005
    72	1.46454e-007	2.01356e-005	2.0282e-005
    73	1.46455e-007	2.01356e-005	2.0282e-005
    74	1.46456e-007	2.01355e-005	2.0282e-005
    75	1.46456e-007	2.01355e-005	2.0282e-005
    76	1.46457e-007	2.01355e-005	2.0282e-005
    77	1.46458e-007	2.01355e-005	2.0282e-005
    78	1.46459e-007	2.01355e-005	2.0282e-005
    79	1.4646e-007	2.01355e-005	2.02819e-005
    80	1.4646e-007	2.01355e-005	2.02819e-005
    81	1.46461e-007	2.01355e-005	2.02819e-005
    82	1.46462e-007	2.01355e-005	2.02819e-005
    83	1.46462e-007	2.01354e-005	2.02819e-005
    84	1.46463e-007	2.01354e-005	2.02819e-005
    85	1.46463e-007	2.01354e-005	2.02819e-005
    86	1.46464e-007	2.01354e-005	2.02819e-005
    87	1.46465e-007	2.01354e-005	2.02819e-005
    88	1.46465e-007	2.01354e-005	2.02819e-005
    89	1.46465e-007	2.01354e-005	2.02818e-005
    90	1.46466e-007	2.01354e-005	2.02818e-005
    91	1.46466e-007	2.01354e-005	2.02818e-005
    92	1.46467e-007	2.01353e-005	2.02818e-005
    93	1.46467e-007	2.01353e-005	2.02818e-005
    94	1.46467e-007	2.01353e-005	2.02818e-005
    95	1.46468e-007	2.01353e-005	2.02818e-005
    96	1.46468e-007	2.01353e-005	2.02818e-005
    97	1.46468e-007	2.01353e-005	2.02818e-005
    98	1.46468e-007	2.01353e-005	2.02817e-005
    99	1.46468e-007	2.01353e-005	2.02817e-005
   100	1.46468e-007	2.01353e-005	2.02817e-005
   101	1.46468e-007	2.01352e-005	2.02817e-005

Measurement: tr2
  step	tr2	FROM	TO
     1	4.44971e-007	6.13959e-005	6.18409e-005
     2	4.44973e-007	6.13959e-005	6.18408e-005
     3	4.4499e-007	6.13959e-005	6.18409e-005
     4	4.45008e-007	6.13959e-005	6.18409e-005
     5	4.45025e-007	6.13959e-005	6.18409e-005
     6	4.45043e-007	6.13959e-005	6.18409e-005
     7	4.45037e-007	6.13958e-005	6.18409e-005
     8	4.45055e-007	6.13958e-005	6.18409e-005
     9	4.45072e-007	6.13958e-005	6.18409e-005
    10	4.4509e-007	6.13958e-005	6.18409e-005
    11	4.45107e-007	6.13958e-005	6.18409e-005
    12	4.45125e-007	6.13958e-005	6.1841e-005
    13	4.45143e-007	6.13958e-005	6.1841e-005
    14	4.4516e-007	6.13958e-005	6.1841e-005
    15	4.45178e-007	6.13958e-005	6.1841e-005
    16	4.45195e-007	6.13958e-005	6.1841e-005
    17	4.3754e-007	6.13959e-005	6.18334e-005
    18	4.3758e-007	6.13961e-005	6.18337e-005
    19	4.36111e-007	6.13963e-005	6.18324e-005
    20	4.41299e-007	6.13968e-005	6.18381e-005
    21	4.4193e-007	6.13958e-005	6.18377e-005
    22	4.43665e-007	6.13963e-005	6.184e-005
    23	4.34464e-007	6.13967e-005	6.18311e-005
    24	4.41435e-007	6.13968e-005	6.18382e-005
    25	4.32962e-007	6.13959e-005	6.18289e-005
    26	4.38726e-007	6.13958e-005	6.18345e-005
    27	4.32949e-007	6.13959e-005	6.18289e-005
    28	4.42459e-007	6.13968e-005	6.18393e-005
    29	4.37037e-007	6.13962e-005	6.18332e-005
    30	4.4489e-007	6.13963e-005	6.18412e-005
    31	4.45773e-007	6.13963e-005	6.18421e-005
    32	4.42791e-007	6.13968e-005	6.18396e-005
    33	4.43862e-007	6.13963e-005	6.18401e-005
    34	4.35257e-007	6.13962e-005	6.18314e-005
    35	4.38233e-007	6.13956e-005	6.18339e-005
    36	4.44828e-007	6.13963e-005	6.18411e-005
    37	4.39423e-007	6.13962e-005	6.18356e-005
    38	4.4309e-007	6.13967e-005	6.18398e-005
    39	4.45028e-007	6.13963e-005	6.18413e-005
    40	4.42206e-007	6.13969e-005	6.18391e-005
    41	4.43399e-007	6.13969e-005	6.18403e-005
    42	4.43197e-007	6.13969e-005	6.18401e-005
    43	4.38799e-007	6.1396e-005	6.18348e-005
    44	4.45712e-007	6.1396e-005	6.18417e-005
    45	4.4573e-007	6.1396e-005	6.18417e-005
    46	4.45748e-007	6.1396e-005	6.18417e-005
    47	4.45766e-007	6.1396e-005	6.18418e-005
    48	4.32554e-007	6.13966e-005	6.18292e-005
    49	4.46124e-007	6.13965e-005	6.18426e-005
    50	4.42637e-007	6.13971e-005	6.18398e-005
    51	4.36981e-007	6.13963e-005	6.18333e-005
    52	4.45878e-007	6.13961e-005	6.1842e-005
    53	4.45896e-007	6.13961e-005	6.1842e-005
    54	4.45914e-007	6.13961e-005	6.1842e-005
    55	4.45933e-007	6.13961e-005	6.1842e-005
    56	4.45951e-007	6.13961e-005	6.1842e-005
    57	4.43138e-007	6.13969e-005	6.184e-005
    58	4.44603e-007	6.13962e-005	6.18408e-005
    59	4.40009e-007	6.13963e-005	6.18363e-005
    60	4.44057e-007	6.1397e-005	6.1841e-005
    61	4.37378e-007	6.13962e-005	6.18336e-005
    62	4.43342e-007	6.13971e-005	6.18404e-005
    63	4.43404e-007	6.13971e-005	6.18405e-005
    64	4.33296e-007	6.13965e-005	6.18298e-005
    65	4.45605e-007	6.13964e-005	6.1842e-005
    66	4.40118e-007	6.13969e-005	6.1837e-005
    67	4.37484e-007	6.13964e-005	6.18339e-005
    68	4.4615e-007	6.13961e-005	6.18422e-005
    69	4.46168e-007	6.13961e-005	6.18422e-005
    70	4.46186e-007	6.13961e-005	6.18423e-005
    71	4.46205e-007	6.13961e-005	6.18423e-005
    72	4.46223e-007	6.13961e-005	6.18423e-005
    73	4.46242e-007	6.13961e-005	6.18423e-005
    74	4.4626e-007	6.13961e-005	6.18424e-005
    75	4.46279e-007	6.13961e-005	6.18424e-005
    76	4.46297e-007	6.13961e-005	6.18424e-005
    77	4.46315e-007	6.13961e-005	6.18424e-005
    78	4.46334e-007	6.13961e-005	6.18424e-005
    79	4.46352e-007	6.13961e-005	6.18425e-005
    80	4.46371e-007	6.13961e-005	6.18425e-005
    81	4.41838e-007	6.13965e-005	6.18383e-005
    82	4.44822e-007	6.13964e-005	6.18413e-005
    83	4.45258e-007	6.1397e-005	6.18422e-005
    84	4.37358e-007	6.13964e-005	6.18337e-005
    85	4.46448e-007	6.13961e-005	6.18425e-005
    86	4.46467e-007	6.13961e-005	6.18426e-005
    87	4.46501e-007	6.13961e-005	6.18426e-005
    88	4.45148e-007	6.13965e-005	6.18416e-005
    89	4.38783e-007	6.13965e-005	6.18353e-005
    90	4.46542e-007	6.13961e-005	6.18427e-005
    91	4.46575e-007	6.13962e-005	6.18427e-005
    92	4.46594e-007	6.13962e-005	6.18428e-005
    93	4.46745e-007	6.13962e-005	6.18429e-005
    94	4.38445e-007	6.13965e-005	6.1835e-005
    95	4.36601e-007	6.13959e-005	6.18325e-005
    96	4.36078e-007	6.13962e-005	6.18323e-005
    97	4.36796e-007	6.13964e-005	6.18332e-005
    98	4.44176e-007	6.1397e-005	6.18412e-005
    99	4.35805e-007	6.13964e-005	6.18322e-005
   100	4.46228e-007	6.13971e-005	6.18434e-005
   101	4.4652e-007	6.13967e-005	6.18432e-005

Measurement: vth
  step	v(n004)	at
     1	2.66435	2.01953e-005
     2	2.66424	2.01953e-005
     3	2.66412	2.01953e-005
     4	2.664	2.01953e-005
     5	2.66389	2.01953e-005
     6	2.66377	2.01953e-005
     7	2.66365	2.01953e-005
     8	2.66353	2.01953e-005
     9	2.66342	2.01953e-005
    10	2.6633	2.01953e-005
    11	2.66318	2.01953e-005
    12	2.66307	2.01953e-005
    13	2.66295	2.01953e-005
    14	2.66283	2.01952e-005
    15	2.66271	2.01952e-005
    16	2.6626	2.01952e-005
    17	2.66248	2.01952e-005
    18	2.66236	2.01952e-005
    19	2.66225	2.01952e-005
    20	2.66213	2.01952e-005
    21	2.66201	2.01952e-005
    22	2.66189	2.01952e-005
    23	2.66178	2.01952e-005
    24	2.66166	2.01952e-005
    25	2.66154	2.01952e-005
    26	2.66143	2.01952e-005
    27	2.66131	2.01952e-005
    28	2.66119	2.01952e-005
    29	2.66108	2.01952e-005
    30	2.66096	2.01952e-005
    31	2.66084	2.01952e-005
    32	2.66073	2.01952e-005
    33	2.66061	2.01952e-005
    34	2.66049	2.01952e-005
    35	2.66038	2.01951e-005
    36	2.66026	2.01951e-005
    37	2.66014	2.01951e-005
    38	2.66003	2.01951e-005
    39	2.65991	2.01951e-005
    40	2.65979	2.01951e-005
    41	2.65968	2.01951e-005
    42	2.65956	2.01951e-005
    43	2.65944	2.01951e-005
    44	2.65933	2.01951e-005
    45	2.65921	2.01951e-005
    46	2.65909	2.01951e-005
    47	2.65898	2.01951e-005
    48	2.65886	2.01951e-005
    49	2.65874	2.01951e-005
    50	2.65863	2.01951e-005
    51	2.65851	2.01951e-005
    52	2.65839	2.01951e-005
    53	2.65828	2.01951e-005
    54	2.65816	2.01951e-005
    55	2.65804	2.01951e-005
    56	2.65793	2.01951e-005
    57	2.65781	2.0195e-005
    58	2.65769	2.0195e-005
    59	2.65758	2.0195e-005
    60	2.65746	2.0195e-005
    61	2.65735	2.0195e-005
    62	2.65723	2.0195e-005
    63	2.65711	2.0195e-005
    64	2.657	2.0195e-005
    65	2.65688	2.0195e-005
    66	2.65676	2.0195e-005
    67	2.65665	2.0195e-005
    68	2.65653	2.0195e-005
    69	2.65642	2.0195e-005
    70	2.6563	2.0195e-005
    71	2.65618	2.0195e-005
    72	2.65607	2.0195e-005
    73	2.65595	2.0195e-005
    74	2.65583	2.0195e-005
    75	2.65572	2.0195e-005
    76	2.6556	2.0195e-005
    77	2.65549	2.01949e-005
    78	2.65537	2.01949e-005
    79	2.65525	2.01949e-005
    80	2.65514	2.01949e-005
    81	2.65502	2.01949e-005
    82	2.65491	2.01949e-005
    83	2.65479	2.01949e-005
    84	2.65467	2.01949e-005
    85	2.65456	2.01949e-005
    86	2.65444	2.01949e-005
    87	2.65433	2.01949e-005
    88	2.65421	2.01949e-005
    89	2.6541	2.01949e-005
    90	2.65398	2.01949e-005
    91	2.65386	2.01949e-005
    92	2.65375	2.01949e-005
    93	2.65363	2.01949e-005
    94	2.65352	2.01949e-005
    95	2.6534	2.01949e-005
    96	2.65328	2.01949e-005
    97	2.65317	2.01948e-005
    98	2.65305	2.01948e-005
    99	2.65294	2.01948e-005
   100	2.65282	2.01948e-005
   101	2.65271	2.01948e-005


Date: Tue Mar 22 14:30:22 2022
Total elapsed time: 1.185 seconds.

tnom = 27
temp = 27
method = modified trap
totiter = 2601
traniter = 2572
tranpoints = 1164
accept = 1128
rejected = 36
matrix size = 11
fillins = 0
solver = Normal
Matrix Compiler1: 674 bytes object code size  0.1/0.1/[0.1]
Matrix Compiler2: off  [0.1]/0.1/0.1

