Circuit: * C:\Users\user\Documents\LTspiceXVII\file\Montecarlo\monte_SiC.asc

Direct Newton iteration for .op point succeeded.
.step tol1=0
.step tol1=0.01
.step tol1=0.02
.step tol1=0.03
.step tol1=0.04
.step tol1=0.05
.step tol1=0.06
.step tol1=0.07
.step tol1=0.08
.step tol1=0.09
.step tol1=0.1
.step tol1=0.11
.step tol1=0.12
.step tol1=0.13
.step tol1=0.14
.step tol1=0.15
.step tol1=0.16
.step tol1=0.17
.step tol1=0.18
.step tol1=0.19
.step tol1=0.2
.step tol1=0.21
.step tol1=0.22
.step tol1=0.23
.step tol1=0.24
.step tol1=0.25
.step tol1=0.26
.step tol1=0.27
.step tol1=0.28
.step tol1=0.29
.step tol1=0.3
.step tol1=0.31
.step tol1=0.32
.step tol1=0.33
.step tol1=0.34
.step tol1=0.35
.step tol1=0.36
.step tol1=0.37
.step tol1=0.38
.step tol1=0.39
.step tol1=0.4
.step tol1=0.41
.step tol1=0.42
.step tol1=0.43
.step tol1=0.44
.step tol1=0.45
.step tol1=0.46
.step tol1=0.47
.step tol1=0.48
.step tol1=0.49
.step tol1=0.5
.step tol1=0.51
.step tol1=0.52
.step tol1=0.53
.step tol1=0.54
.step tol1=0.55
.step tol1=0.56
.step tol1=0.57
.step tol1=0.58
.step tol1=0.59
.step tol1=0.6
.step tol1=0.61
.step tol1=0.62
.step tol1=0.63
.step tol1=0.64
.step tol1=0.65
.step tol1=0.66
.step tol1=0.67
.step tol1=0.68
.step tol1=0.69
.step tol1=0.7
.step tol1=0.71
.step tol1=0.72
.step tol1=0.73
.step tol1=0.74
.step tol1=0.75
.step tol1=0.76
.step tol1=0.77
.step tol1=0.78
.step tol1=0.79
.step tol1=0.8
.step tol1=0.81
.step tol1=0.82
.step tol1=0.83
.step tol1=0.84
.step tol1=0.85
.step tol1=0.86
.step tol1=0.87
.step tol1=0.88
.step tol1=0.89
.step tol1=0.9
.step tol1=0.91
.step tol1=0.92
.step tol1=0.93
.step tol1=0.94
.step tol1=0.95
.step tol1=0.96
.step tol1=0.97
.step tol1=0.98
.step tol1=0.99
.step tol1=1


Measurement: imax
  step	MAX(-i(v1))	FROM	TO
     1	9.80646	0	0.0001
     2	9.80641	0	0.0001
     3	9.80635	0	0.0001
     4	9.80631	0	0.0001
     5	9.80627	0	0.0001
     6	9.80622	0	0.0001
     7	9.80618	0	0.0001
     8	9.80614	0	0.0001
     9	9.8061	0	0.0001
    10	9.80606	0	0.0001
    11	9.80601	0	0.0001
    12	9.80596	0	0.0001
    13	9.80593	0	0.0001
    14	9.80587	0	0.0001
    15	9.80583	0	0.0001
    16	9.8058	0	0.0001
    17	9.80574	0	0.0001
    18	9.80569	0	0.0001
    19	9.80564	0	0.0001
    20	9.8056	0	0.0001
    21	9.80555	0	0.0001
    22	9.80553	0	0.0001
    23	9.80546	0	0.0001
    24	9.80541	0	0.0001
    25	9.80539	0	0.0001
    26	9.80531	0	0.0001
    27	9.80526	0	0.0001
    28	9.80521	0	0.0001
    29	9.80516	0	0.0001
    30	9.80511	0	0.0001
    31	9.80506	0	0.0001
    32	9.80506	0	0.0001
    33	9.80496	0	0.0001
    34	9.80494	0	0.0001
    35	9.80488	0	0.0001
    36	9.80482	0	0.0001
    37	9.80476	0	0.0001
    38	9.80471	0	0.0001
    39	9.80465	0	0.0001
    40	9.8046	0	0.0001
    41	9.80455	0	0.0001
    42	9.8045	0	0.0001
    43	9.80443	0	0.0001
    44	9.8044	0	0.0001
    45	9.80435	0	0.0001
    46	9.8043	0	0.0001
    47	9.80424	0	0.0001
    48	9.80415	0	0.0001
    49	9.80412	0	0.0001
    50	9.80404	0	0.0001
    51	9.80402	0	0.0001
    52	9.80392	0	0.0001
    53	9.8039	0	0.0001
    54	9.80385	0	0.0001
    55	9.80379	0	0.0001
    56	9.80368	0	0.0001
    57	9.80362	0	0.0001
    58	9.80356	0	0.0001
    59	9.8035	0	0.0001
    60	9.80344	0	0.0001
    61	9.80337	0	0.0001
    62	9.80331	0	0.0001
    63	9.80325	0	0.0001
    64	9.80318	0	0.0001
    65	9.80317	0	0.0001
    66	9.80305	0	0.0001
    67	9.80304	0	0.0001
    68	9.80292	0	0.0001
    69	9.80285	0	0.0001
    70	9.80283	0	0.0001
    71	9.80272	0	0.0001
    72	9.8027	0	0.0001
    73	9.80258	0	0.0001
    74	9.80251	0	0.0001
    75	9.80248	0	0.0001
    76	9.80237	0	0.0001
    77	9.8023	0	0.0001
    78	9.80223	0	0.0001
    79	9.80216	0	0.0001
    80	9.80208	0	0.0001
    81	9.80201	0	0.0001
    82	9.80194	0	0.0001
    83	9.80186	0	0.0001
    84	9.80178	0	0.0001
    85	9.80171	0	0.0001
    86	9.80163	0	0.0001
    87	9.80155	0	0.0001
    88	9.8015	0	0.0001
    89	9.80141	0	0.0001
    90	9.80132	0	0.0001
    91	9.80124	0	0.0001
    92	9.80116	0	0.0001
    93	9.80108	0	0.0001
    94	9.80099	0	0.0001
    95	9.80091	0	0.0001
    96	9.80082	0	0.0001
    97	9.80075	0	0.0001
    98	9.80067	0	0.0001
    99	9.80059	0	0.0001
   100	9.8005	0	0.0001
   101	9.80039	0	0.0001

Measurement: tr1
  step	tr1	FROM	TO
     1	1.8838e-007	2.01446e-005	2.0333e-005
     2	1.89365e-007	2.01454e-005	2.03348e-005
     3	1.90252e-007	2.01462e-005	2.03365e-005
     4	1.91022e-007	2.0147e-005	2.03381e-005
     5	1.91702e-007	2.01478e-005	2.03396e-005
     6	1.92464e-007	2.01486e-005	2.03411e-005
     7	1.94144e-007	2.01494e-005	2.03436e-005
     8	1.96476e-007	2.01502e-005	2.03467e-005
     9	1.97786e-007	2.0151e-005	2.03488e-005
    10	1.99218e-007	2.01517e-005	2.03509e-005
    11	2.00866e-007	2.01524e-005	2.03533e-005
    12	2.02225e-007	2.01531e-005	2.03554e-005
    13	2.03589e-007	2.01538e-005	2.03574e-005
    14	2.04775e-007	2.01545e-005	2.03593e-005
    15	2.05902e-007	2.01552e-005	2.03611e-005
    16	2.0678e-007	2.01559e-005	2.03627e-005
    17	2.07938e-007	2.01567e-005	2.03646e-005
    18	2.09073e-007	2.01574e-005	2.03665e-005
    19	2.10178e-007	2.01582e-005	2.03684e-005
    20	2.10778e-007	2.01592e-005	2.03699e-005
    21	2.12218e-007	2.01598e-005	2.03721e-005
    22	2.13442e-007	2.01611e-005	2.03745e-005
    23	2.15495e-007	2.01624e-005	2.03779e-005
    24	2.16105e-007	2.01637e-005	2.03798e-005
    25	2.1701e-007	2.01651e-005	2.03821e-005
    26	2.17596e-007	2.01665e-005	2.03841e-005
    27	2.18063e-007	2.0168e-005	2.0386e-005
    28	2.18505e-007	2.01694e-005	2.03879e-005
    29	2.18758e-007	2.01705e-005	2.03893e-005
    30	2.19222e-007	2.01714e-005	2.03906e-005
    31	2.20094e-007	2.01722e-005	2.03923e-005
    32	2.20549e-007	2.01731e-005	2.03936e-005
    33	2.20827e-007	2.01739e-005	2.03947e-005
    34	2.22539e-007	2.01747e-005	2.03973e-005
    35	2.23747e-007	2.01755e-005	2.03993e-005
    36	2.25313e-007	2.01764e-005	2.04017e-005
    37	2.257e-007	2.01772e-005	2.04029e-005
    38	2.28738e-007	2.0178e-005	2.04068e-005
    39	2.30108e-007	2.01788e-005	2.04089e-005
    40	2.32131e-007	2.01796e-005	2.04118e-005
    41	2.33861e-007	2.01804e-005	2.04143e-005
    42	2.35597e-007	2.01812e-005	2.04168e-005
    43	2.37449e-007	2.0182e-005	2.04194e-005
    44	2.39034e-007	2.01827e-005	2.04218e-005
    45	2.40745e-007	2.01835e-005	2.04242e-005
    46	2.41252e-007	2.01851e-005	2.04263e-005
    47	2.42742e-007	2.01863e-005	2.0429e-005
    48	2.45916e-007	2.01875e-005	2.04334e-005
    49	2.46923e-007	2.01887e-005	2.04357e-005
    50	2.47917e-007	2.019e-005	2.04379e-005
    51	2.489e-007	2.01912e-005	2.04401e-005
    52	2.50263e-007	2.01924e-005	2.04427e-005
    53	2.51245e-007	2.01937e-005	2.0445e-005
    54	2.52065e-007	2.0195e-005	2.04471e-005
    55	2.53028e-007	2.01963e-005	2.04493e-005
    56	2.5404e-007	2.01976e-005	2.04516e-005
    57	2.55121e-007	2.01988e-005	2.04539e-005
    58	2.56327e-007	2.02001e-005	2.04564e-005
    59	2.57929e-007	2.02013e-005	2.04592e-005
    60	2.59553e-007	2.02025e-005	2.0462e-005
    61	2.61235e-007	2.02036e-005	2.04649e-005
    62	2.62995e-007	2.02047e-005	2.04677e-005
    63	2.64764e-007	2.02058e-005	2.04706e-005
    64	2.66544e-007	2.02069e-005	2.04734e-005
    65	2.68372e-007	2.0208e-005	2.04764e-005
    66	2.70335e-007	2.02089e-005	2.04793e-005
    67	2.72396e-007	2.02098e-005	2.04822e-005
    68	2.74527e-007	2.02106e-005	2.04852e-005
    69	2.7674e-007	2.02114e-005	2.04881e-005
    70	2.79237e-007	2.0212e-005	2.04913e-005
    71	2.82571e-007	2.02127e-005	2.04953e-005
    72	2.83598e-007	2.02133e-005	2.04969e-005
    73	2.86543e-007	2.02137e-005	2.05002e-005
    74	2.90707e-007	2.02121e-005	2.05028e-005
    75	2.92562e-007	2.02137e-005	2.05063e-005
    76	2.94306e-007	2.02153e-005	2.05096e-005
    77	2.961e-007	2.02169e-005	2.0513e-005
    78	2.97903e-007	2.02186e-005	2.05165e-005
    79	2.99903e-007	2.02203e-005	2.05202e-005
    80	3.01754e-007	2.0222e-005	2.05237e-005
    81	3.03584e-007	2.02236e-005	2.05272e-005
    82	3.04823e-007	2.02252e-005	2.05301e-005
    83	3.06518e-007	2.0227e-005	2.05336e-005
    84	3.09597e-007	2.02286e-005	2.05382e-005
    85	3.11127e-007	2.02301e-005	2.05412e-005
    86	3.12465e-007	2.02317e-005	2.05441e-005
    87	3.14191e-007	2.02327e-005	2.05469e-005
    88	3.17117e-007	2.02337e-005	2.05508e-005
    89	3.19953e-007	2.02347e-005	2.05546e-005
    90	3.22534e-007	2.02357e-005	2.05582e-005
    91	3.25585e-007	2.02367e-005	2.05622e-005
    92	3.2858e-007	2.02376e-005	2.05662e-005
    93	3.31496e-007	2.02386e-005	2.05701e-005
    94	3.34275e-007	2.02396e-005	2.05739e-005
    95	3.37577e-007	2.02406e-005	2.05782e-005
    96	3.40776e-007	2.02416e-005	2.05824e-005
    97	3.4408e-007	2.02426e-005	2.05866e-005
    98	3.47152e-007	2.02435e-005	2.05907e-005
    99	3.50412e-007	2.02445e-005	2.05949e-005
   100	3.52835e-007	2.02461e-005	2.05989e-005
   101	3.55505e-007	2.02476e-005	2.06031e-005

Measurement: tr2
  step	tr2	FROM	TO
     1	4.24943e-007	6.12087e-005	6.16336e-005
     2	4.16204e-007	6.12052e-005	6.16214e-005
     3	4.08546e-007	6.12012e-005	6.16097e-005
     4	4.06667e-007	6.11975e-005	6.16042e-005
     5	4.12949e-007	6.11939e-005	6.16069e-005
     6	4.06665e-007	6.11902e-005	6.15969e-005
     7	4.00208e-007	6.11867e-005	6.1587e-005
     8	3.96979e-007	6.11833e-005	6.15803e-005
     9	3.94072e-007	6.11798e-005	6.15738e-005
    10	3.96177e-007	6.11759e-005	6.15721e-005
    11	3.90252e-007	6.11725e-005	6.15628e-005
    12	3.85342e-007	6.11694e-005	6.15547e-005
    13	3.83106e-007	6.11655e-005	6.15486e-005
    14	3.8868e-007	6.1162e-005	6.15507e-005
    15	3.90941e-007	6.11582e-005	6.15491e-005
    16	3.87819e-007	6.11549e-005	6.15428e-005
    17	3.76071e-007	6.11512e-005	6.15273e-005
    18	3.81164e-007	6.11474e-005	6.15286e-005
    19	3.76234e-007	6.11441e-005	6.15203e-005
    20	3.7504e-007	6.11411e-005	6.15162e-005
    21	3.70839e-007	6.11369e-005	6.15077e-005
    22	3.71323e-007	6.11339e-005	6.15052e-005
    23	3.7031e-007	6.11299e-005	6.15002e-005
    24	3.67307e-007	6.11264e-005	6.14937e-005
    25	3.62667e-007	6.11231e-005	6.14858e-005
    26	3.60638e-007	6.11197e-005	6.14803e-005
    27	3.59871e-007	6.11162e-005	6.14761e-005
    28	3.5683e-007	6.1113e-005	6.14698e-005
    29	3.57064e-007	6.11095e-005	6.14666e-005
    30	3.51392e-007	6.11062e-005	6.14576e-005
    31	3.57625e-007	6.11027e-005	6.14603e-005
    32	3.48279e-007	6.10997e-005	6.1448e-005
    33	3.50759e-007	6.10963e-005	6.14471e-005
    34	3.4845e-007	6.10937e-005	6.14421e-005
    35	3.46484e-007	6.10896e-005	6.14361e-005
    36	3.44794e-007	6.10865e-005	6.14312e-005
    37	3.43176e-007	6.10835e-005	6.14267e-005
    38	3.42105e-007	6.10798e-005	6.14219e-005
    39	3.39958e-007	6.1076e-005	6.1416e-005
    40	3.3922e-007	6.10729e-005	6.14121e-005
    41	3.37212e-007	6.10693e-005	6.14065e-005
    42	3.35912e-007	6.10657e-005	6.14016e-005
    43	3.36275e-007	6.10626e-005	6.13989e-005
    44	3.33089e-007	6.10599e-005	6.1393e-005
    45	3.33708e-007	6.10559e-005	6.13896e-005
    46	3.3193e-007	6.10526e-005	6.13845e-005
    47	3.31081e-007	6.10489e-005	6.138e-005
    48	3.30234e-007	6.10465e-005	6.13767e-005
    49	3.28354e-007	6.10427e-005	6.13711e-005
    50	3.27873e-007	6.10397e-005	6.13675e-005
    51	3.2807e-007	6.10364e-005	6.13645e-005
    52	3.2271e-007	6.10341e-005	6.13568e-005
    53	3.23279e-007	6.10301e-005	6.13534e-005
    54	3.23122e-007	6.10262e-005	6.13494e-005
    55	3.21638e-007	6.10233e-005	6.13449e-005
    56	3.20999e-007	6.10197e-005	6.13407e-005
    57	3.20117e-007	6.10164e-005	6.13365e-005
    58	3.19239e-007	6.10131e-005	6.13323e-005
    59	3.17875e-007	6.10098e-005	6.13277e-005
    60	3.17234e-007	6.10067e-005	6.1324e-005
    61	3.1596e-007	6.10035e-005	6.13194e-005
    62	3.16288e-007	6.10003e-005	6.13166e-005
    63	3.16117e-007	6.09975e-005	6.13136e-005
    64	3.13686e-007	6.09942e-005	6.13079e-005
    65	3.1221e-007	6.09904e-005	6.13026e-005
    66	3.11254e-007	6.09879e-005	6.12992e-005
    67	3.11745e-007	6.09849e-005	6.12967e-005
    68	3.12242e-007	6.09825e-005	6.12947e-005
    69	3.10574e-007	6.09783e-005	6.12889e-005
    70	3.09683e-007	6.09751e-005	6.12848e-005
    71	3.08946e-007	6.09728e-005	6.12817e-005
    72	3.0725e-007	6.09689e-005	6.12762e-005
    73	3.06617e-007	6.0966e-005	6.12727e-005
    74	3.09087e-007	6.0962e-005	6.1271e-005
    75	3.08967e-007	6.0956e-005	6.1265e-005
    76	3.04788e-007	6.09563e-005	6.12611e-005
    77	3.04255e-007	6.09538e-005	6.12581e-005
    78	3.07494e-007	6.09481e-005	6.12556e-005
    79	3.06251e-007	6.09435e-005	6.12498e-005
    80	3.04127e-007	6.09423e-005	6.12464e-005
    81	3.02398e-007	6.09411e-005	6.12435e-005
    82	3.06141e-007	6.0933e-005	6.12391e-005
    83	3.0419e-007	6.09304e-005	6.12346e-005
    84	3.03743e-007	6.09278e-005	6.12316e-005
    85	3.0347e-007	6.09252e-005	6.12286e-005
    86	3.03486e-007	6.09231e-005	6.12265e-005
    87	3.02718e-007	6.09205e-005	6.12232e-005
    88	3.01749e-007	6.09156e-005	6.12174e-005
    89	2.96499e-007	6.09179e-005	6.12144e-005
    90	3.01734e-007	6.09105e-005	6.12122e-005
    91	3.00054e-007	6.09087e-005	6.12087e-005
    92	3.00461e-007	6.09057e-005	6.12062e-005
    93	3.00585e-007	6.09002e-005	6.12008e-005
    94	3.03015e-007	6.08943e-005	6.11973e-005
    95	2.94467e-007	6.08993e-005	6.11938e-005
    96	3.01772e-007	6.089e-005	6.11917e-005
    97	2.9658e-007	6.08927e-005	6.11893e-005
    98	2.97805e-007	6.08859e-005	6.11837e-005
    99	2.93976e-007	6.08872e-005	6.11812e-005
   100	2.92682e-007	6.08843e-005	6.1177e-005
   101	2.92921e-007	6.08791e-005	6.1172e-005

Measurement: vth
  step	v(n004)	at
     1	1.88283	2.01041e-005
     2	1.89088	2.01044e-005
     3	1.90163	2.01048e-005
     4	1.91601	2.01052e-005
     5	1.93523	2.01059e-005
     6	1.9609	2.01067e-005
     7	1.99516	2.01079e-005
     8	2.04079	2.01094e-005
     9	2.0561	2.011e-005
    10	2.05679	2.011e-005
    11	2.05741	2.011e-005
    12	2.05796	2.011e-005
    13	2.05845	2.011e-005
    14	2.05887	2.01101e-005
    15	2.05924	2.01101e-005
    16	2.05954	2.01101e-005
    17	2.05977	2.01101e-005
    18	2.0599	2.01101e-005
    19	2.05995	2.01101e-005
    20	2.05917	2.01101e-005
    21	2.05965	2.01101e-005
    22	2.06022	2.01101e-005
    23	2.06094	2.01101e-005
    24	2.06186	2.01102e-005
    25	2.06307	2.01102e-005
    26	2.06474	2.01103e-005
    27	2.06712	2.01103e-005
    28	2.07076	2.01105e-005
    29	2.0768	2.01107e-005
    30	2.08466	2.0111e-005
    31	2.09312	2.01113e-005
    32	2.10441	2.01117e-005
    33	2.11949	2.01122e-005
    34	2.13963	2.01129e-005
    35	2.16653	2.01138e-005
    36	2.20238	2.01151e-005
    37	2.25007	2.01168e-005
    38	2.31331	2.0119e-005
    39	2.3968	2.0122e-005
    40	2.43213	2.01232e-005
    41	2.4329	2.01232e-005
    42	2.43359	2.01233e-005
    43	2.43423	2.01233e-005
    44	2.43484	2.01233e-005
    45	2.43545	2.01233e-005
    46	2.43606	2.01234e-005
    47	2.4367	2.01234e-005
    48	2.43739	2.01234e-005
    49	2.43813	2.01234e-005
    50	2.43896	2.01235e-005
    51	2.43988	2.01235e-005
    52	2.44092	2.01235e-005
    53	2.44214	2.01236e-005
    54	2.44351	2.01236e-005
    55	2.44507	2.01237e-005
    56	2.44685	2.01238e-005
    57	2.44885	2.01238e-005
    58	2.45109	2.01239e-005
    59	2.45354	2.0124e-005
    60	2.45613	2.01241e-005
    61	2.45874	2.01242e-005
    62	2.4612	2.01243e-005
    63	2.46326	2.01244e-005
    64	2.46465	2.01244e-005
    65	2.46512	2.01245e-005
    66	2.46452	2.01244e-005
    67	2.46283	2.01244e-005
    68	2.46022	2.01243e-005
    69	2.457	2.01242e-005
    70	2.4535	2.0124e-005
    71	2.45004	2.01239e-005
    72	2.44685	2.01238e-005
    73	2.44404	2.01237e-005
    74	2.43839	2.01234e-005
    75	2.43925	2.01235e-005
    76	2.44033	2.01235e-005
    77	2.44169	2.01236e-005
    78	2.44348	2.01236e-005
    79	2.44588	2.01237e-005
    80	2.44925	2.01239e-005
    81	2.45423	2.01241e-005
    82	2.46211	2.01244e-005
    83	2.47583	2.01249e-005
    84	2.48838	2.01254e-005
    85	2.50511	2.0126e-005
    86	2.52739	2.01269e-005
    87	2.55709	2.0128e-005
    88	2.5966	2.01295e-005
    89	2.64905	2.01316e-005
    90	2.71842	2.01342e-005
    91	2.80974	2.01377e-005
    92	2.92914	2.01423e-005
    93	3.08394	2.01483e-005
    94	3.12031	2.01497e-005
    95	3.12108	2.01497e-005
    96	3.12176	2.01498e-005
    97	3.12237	2.01498e-005
    98	3.12294	2.01498e-005
    99	3.12349	2.01498e-005
   100	3.12404	2.01499e-005
   101	3.12461	2.01499e-005


Date: Wed Mar 23 09:35:22 2022
Total elapsed time: 1.298 seconds.

tnom = 27
temp = 27
method = modified trap
totiter = 2393
traniter = 2363
tranpoints = 1121
accept = 1091
rejected = 30
matrix size = 11
fillins = 0
solver = Normal
Matrix Compiler1: 674 bytes object code size  0.1/0.1/[0.1]
Matrix Compiler2: 847 bytes object code size  0.1/0.1/[0.1]

