Circuit: * C:\Users\user\Documents\LTspiceXVII\file\Montecarlo\monte_SiC.asc

Direct Newton iteration for .op point succeeded.
.step tol1=0
.step tol1=0.01
.step tol1=0.02
.step tol1=0.03
.step tol1=0.04
.step tol1=0.05
.step tol1=0.06
.step tol1=0.07
.step tol1=0.08
.step tol1=0.09
.step tol1=0.1
.step tol1=0.11
.step tol1=0.12
.step tol1=0.13
.step tol1=0.14
.step tol1=0.15
.step tol1=0.16
.step tol1=0.17
.step tol1=0.18
.step tol1=0.19
.step tol1=0.2
.step tol1=0.21
.step tol1=0.22
.step tol1=0.23
.step tol1=0.24
.step tol1=0.25
.step tol1=0.26
.step tol1=0.27
.step tol1=0.28
.step tol1=0.29
.step tol1=0.3
.step tol1=0.31
.step tol1=0.32
.step tol1=0.33
.step tol1=0.34
.step tol1=0.35
.step tol1=0.36
.step tol1=0.37
.step tol1=0.38
.step tol1=0.39
.step tol1=0.4
.step tol1=0.41
.step tol1=0.42
.step tol1=0.43
.step tol1=0.44
.step tol1=0.45
.step tol1=0.46
.step tol1=0.47
.step tol1=0.48
.step tol1=0.49
.step tol1=0.5
.step tol1=0.51
.step tol1=0.52
.step tol1=0.53
.step tol1=0.54
.step tol1=0.55
.step tol1=0.56
.step tol1=0.57
.step tol1=0.58
.step tol1=0.59
.step tol1=0.6
.step tol1=0.61
.step tol1=0.62
.step tol1=0.63
.step tol1=0.64
.step tol1=0.65
.step tol1=0.66
.step tol1=0.67
.step tol1=0.68
.step tol1=0.69
.step tol1=0.7
.step tol1=0.71
.step tol1=0.72
.step tol1=0.73
.step tol1=0.74
.step tol1=0.75
.step tol1=0.76
.step tol1=0.77
.step tol1=0.78
.step tol1=0.79
.step tol1=0.8
.step tol1=0.81
.step tol1=0.82
.step tol1=0.83
.step tol1=0.84
.step tol1=0.85
.step tol1=0.86
.step tol1=0.87
.step tol1=0.88
.step tol1=0.89
.step tol1=0.9
.step tol1=0.91
.step tol1=0.92
.step tol1=0.93
.step tol1=0.94
.step tol1=0.95
.step tol1=0.96
.step tol1=0.97
.step tol1=0.98
.step tol1=0.99
.step tol1=1


Measurement: imax
  step	MAX(-i(v1))	FROM	TO
     1	0.998033	0	0.0001
     2	0.998037	0	0.0001
     3	0.998036	0	0.0001
     4	0.998037	0	0.0001
     5	0.99804	0	0.0001
     6	0.998041	0	0.0001
     7	0.998041	0	0.0001
     8	0.998043	0	0.0001
     9	0.998044	0	0.0001
    10	0.998045	0	0.0001
    11	0.998046	0	0.0001
    12	0.998047	0	0.0001
    13	0.998049	0	0.0001
    14	0.99805	0	0.0001
    15	0.998051	0	0.0001
    16	0.998051	0	0.0001
    17	0.998052	0	0.0001
    18	0.998053	0	0.0001
    19	0.998054	0	0.0001
    20	0.998055	0	0.0001
    21	0.998057	0	0.0001
    22	0.998057	0	0.0001
    23	0.998058	0	0.0001
    24	0.998059	0	0.0001
    25	0.99806	0	0.0001
    26	0.99806	0	0.0001
    27	0.998061	0	0.0001
    28	0.998062	0	0.0001
    29	0.998063	0	0.0001
    30	0.998065	0	0.0001
    31	0.998067	0	0.0001
    32	0.998065	0	0.0001
    33	0.998066	0	0.0001
    34	0.998069	0	0.0001
    35	0.99807	0	0.0001
    36	0.998068	0	0.0001
    37	0.998069	0	0.0001
    38	0.99807	0	0.0001
    39	0.99807	0	0.0001
    40	0.998073	0	0.0001
    41	0.998072	0	0.0001
    42	0.998073	0	0.0001
    43	0.998074	0	0.0001
    44	0.998074	0	0.0001
    45	0.998074	0	0.0001
    46	0.998075	0	0.0001
    47	0.998076	0	0.0001
    48	0.998078	0	0.0001
    49	0.998077	0	0.0001
    50	0.998078	0	0.0001
    51	0.99808	0	0.0001
    52	0.998079	0	0.0001
    53	0.998079	0	0.0001
    54	0.998081	0	0.0001
    55	0.998082	0	0.0001
    56	0.998084	0	0.0001
    57	0.998084	0	0.0001
    58	0.998083	0	0.0001
    59	0.998084	0	0.0001
    60	0.998083	0	0.0001
    61	0.998084	0	0.0001
    62	0.998084	0	0.0001
    63	0.998085	0	0.0001
    64	0.998087	0	0.0001
    65	0.998086	0	0.0001
    66	0.998086	0	0.0001
    67	0.998087	0	0.0001
    68	0.998087	0	0.0001
    69	0.99809	0	0.0001
    70	0.998088	0	0.0001
    71	0.998089	0	0.0001
    72	0.998089	0	0.0001
    73	0.99809	0	0.0001
    74	0.99809	0	0.0001
    75	0.99809	0	0.0001
    76	0.998091	0	0.0001
    77	0.998091	0	0.0001
    78	0.998092	0	0.0001
    79	0.998092	0	0.0001
    80	0.998096	0	0.0001
    81	0.998096	0	0.0001
    82	0.998096	0	0.0001
    83	0.998096	0	0.0001
    84	0.998095	0	0.0001
    85	0.998095	0	0.0001
    86	0.998095	0	0.0001
    87	0.998095	0	0.0001
    88	0.998096	0	0.0001
    89	0.998096	0	0.0001
    90	0.998098	0	0.0001
    91	0.998099	0	0.0001
    92	0.998099	0	0.0001
    93	0.998098	0	0.0001
    94	0.998099	0	0.0001
    95	0.998098	0	0.0001
    96	0.998099	0	0.0001
    97	0.998099	0	0.0001
    98	0.9981	0	0.0001
    99	0.9981	0	0.0001
   100	0.998101	0	0.0001
   101	0.9981	0	0.0001

Measurement: tr1
  step	tr1	FROM	TO
     1	1.46403e-007	2.01363e-005	2.02827e-005
     2	1.47145e-007	2.01369e-005	2.02841e-005
     3	1.47772e-007	2.01375e-005	2.02853e-005
     4	1.48426e-007	2.01381e-005	2.02866e-005
     5	1.49386e-007	2.01388e-005	2.02881e-005
     6	1.50178e-007	2.01394e-005	2.02895e-005
     7	1.50733e-007	2.014e-005	2.02907e-005
     8	1.49097e-007	2.01406e-005	2.02897e-005
     9	1.51158e-007	2.01411e-005	2.02923e-005
    10	1.51097e-007	2.01417e-005	2.02928e-005
    11	1.51063e-007	2.01422e-005	2.02933e-005
    12	1.51158e-007	2.01427e-005	2.02939e-005
    13	1.51363e-007	2.01432e-005	2.02946e-005
    14	1.5148e-007	2.01437e-005	2.02952e-005
    15	1.51681e-007	2.01442e-005	2.02959e-005
    16	1.51988e-007	2.01447e-005	2.02966e-005
    17	1.54854e-007	2.01457e-005	2.03005e-005
    18	1.50445e-007	2.01463e-005	2.02968e-005
    19	1.50617e-007	2.01469e-005	2.02975e-005
    20	1.51565e-007	2.01475e-005	2.02991e-005
    21	1.51511e-007	2.0148e-005	2.02995e-005
    22	1.52522e-007	2.01486e-005	2.03011e-005
    23	1.56474e-007	2.01491e-005	2.03056e-005
    24	1.51896e-007	2.01501e-005	2.0302e-005
    25	1.52784e-007	2.01507e-005	2.03035e-005
    26	1.53116e-007	2.01513e-005	2.03044e-005
    27	1.53506e-007	2.01519e-005	2.03054e-005
    28	1.5379e-007	2.01525e-005	2.03063e-005
    29	1.54069e-007	2.01531e-005	2.03072e-005
    30	1.54396e-007	2.01537e-005	2.03081e-005
    31	1.54749e-007	2.01543e-005	2.03091e-005
    32	1.55153e-007	2.01549e-005	2.03101e-005
    33	1.55598e-007	2.01555e-005	2.03111e-005
    34	1.56085e-007	2.01561e-005	2.03121e-005
    35	1.5928e-007	2.01559e-005	2.03152e-005
    36	1.58944e-007	2.01566e-005	2.03156e-005
    37	1.58635e-007	2.01574e-005	2.0316e-005
    38	1.5831e-007	2.01581e-005	2.03164e-005
    39	1.61663e-007	2.01588e-005	2.03205e-005
    40	1.58308e-007	2.01596e-005	2.03179e-005
    41	1.5816e-007	2.01604e-005	2.03185e-005
    42	1.58134e-007	2.01611e-005	2.03193e-005
    43	1.58123e-007	2.01619e-005	2.032e-005
    44	1.61197e-007	2.01627e-005	2.03239e-005
    45	1.58466e-007	2.01635e-005	2.0322e-005
    46	1.57993e-007	2.01643e-005	2.03223e-005
    47	1.57608e-007	2.01651e-005	2.03227e-005
    48	1.61441e-007	2.01659e-005	2.03274e-005
    49	1.5682e-007	2.01667e-005	2.03236e-005
    50	1.56859e-007	2.01676e-005	2.03244e-005
    51	1.56944e-007	2.01684e-005	2.03254e-005
    52	1.56999e-007	2.01693e-005	2.03263e-005
    53	1.5704e-007	2.01701e-005	2.03271e-005
    54	1.57067e-007	2.0171e-005	2.0328e-005
    55	1.61562e-007	2.01718e-005	2.03334e-005
    56	1.62239e-007	2.01726e-005	2.03348e-005
    57	1.61749e-007	2.01732e-005	2.03349e-005
    58	1.61768e-007	2.01738e-005	2.03356e-005
    59	1.61815e-007	2.01744e-005	2.03362e-005
    60	1.61882e-007	2.0175e-005	2.03369e-005
    61	1.62086e-007	2.01755e-005	2.03376e-005
    62	1.62201e-007	2.01761e-005	2.03383e-005
    63	1.6245e-007	2.01766e-005	2.03391e-005
    64	1.62708e-007	2.01772e-005	2.03399e-005
    65	1.61649e-007	2.01777e-005	2.03393e-005
    66	1.6151e-007	2.01782e-005	2.03397e-005
    67	1.61816e-007	2.01787e-005	2.03406e-005
    68	1.62191e-007	2.01793e-005	2.03415e-005
    69	1.62584e-007	2.01798e-005	2.03424e-005
    70	1.62981e-007	2.01803e-005	2.03433e-005
    71	1.63412e-007	2.01808e-005	2.03442e-005
    72	1.63834e-007	2.01813e-005	2.03452e-005
    73	1.64654e-007	2.01822e-005	2.03468e-005
    74	1.67839e-007	2.01832e-005	2.03511e-005
    75	1.65393e-007	2.0184e-005	2.03494e-005
    76	1.67948e-007	2.01849e-005	2.03528e-005
    77	1.64048e-007	2.01857e-005	2.03498e-005
    78	1.67121e-007	2.01866e-005	2.03537e-005
    79	1.67437e-007	2.01874e-005	2.03549e-005
    80	1.67547e-007	2.01883e-005	2.03558e-005
    81	1.67744e-007	2.01891e-005	2.03568e-005
    82	1.6787e-007	2.01898e-005	2.03577e-005
    83	1.68024e-007	2.01905e-005	2.03586e-005
    84	1.67902e-007	2.01897e-005	2.03576e-005
    85	1.68913e-007	2.01909e-005	2.03598e-005
    86	1.67912e-007	2.01917e-005	2.03596e-005
    87	1.69062e-007	2.01927e-005	2.03618e-005
    88	1.69329e-007	2.01933e-005	2.03626e-005
    89	1.67173e-007	2.01932e-005	2.03604e-005
    90	1.69106e-007	2.01933e-005	2.03624e-005
    91	1.70121e-007	2.0195e-005	2.03652e-005
    92	1.69993e-007	2.01963e-005	2.03663e-005
    93	1.70402e-007	2.01965e-005	2.03669e-005
    94	1.69298e-007	2.0198e-005	2.03673e-005
    95	1.70997e-007	2.01973e-005	2.03683e-005
    96	1.71621e-007	2.01973e-005	2.03689e-005
    97	1.7086e-007	2.01991e-005	2.03699e-005
    98	1.70145e-007	2.02007e-005	2.03708e-005
    99	1.72438e-007	2.01993e-005	2.03717e-005
   100	1.72872e-007	2.02003e-005	2.03732e-005
   101	1.72098e-007	2.02018e-005	2.03739e-005

Measurement: tr2
  step	tr2	FROM	TO
     1	4.44971e-007	6.13959e-005	6.18409e-005
     2	4.42427e-007	6.14003e-005	6.18428e-005
     3	4.39277e-007	6.14042e-005	6.18435e-005
     4	4.34734e-007	6.14079e-005	6.18426e-005
     5	4.42627e-007	6.14122e-005	6.18548e-005
     6	4.47281e-007	6.14164e-005	6.18637e-005
     7	4.39485e-007	6.14199e-005	6.18594e-005
     8	4.39692e-007	6.14236e-005	6.18633e-005
     9	4.44978e-007	6.1428e-005	6.1873e-005
    10	4.54729e-007	6.14322e-005	6.1887e-005
    11	4.43517e-007	6.14365e-005	6.188e-005
    12	4.47219e-007	6.14397e-005	6.18869e-005
    13	4.43182e-007	6.14441e-005	6.18873e-005
    14	4.46144e-007	6.14481e-005	6.18942e-005
    15	4.45931e-007	6.1452e-005	6.1898e-005
    16	4.45252e-007	6.14564e-005	6.19017e-005
    17	4.47358e-007	6.146e-005	6.19074e-005
    18	4.47974e-007	6.14645e-005	6.19124e-005
    19	4.46603e-007	6.14678e-005	6.19144e-005
    20	4.49274e-007	6.14718e-005	6.19211e-005
    21	4.53768e-007	6.14763e-005	6.19301e-005
    22	4.50613e-007	6.14799e-005	6.19305e-005
    23	4.56383e-007	6.14839e-005	6.19403e-005
    24	4.54057e-007	6.14882e-005	6.19422e-005
    25	4.52797e-007	6.14924e-005	6.19452e-005
    26	4.52526e-007	6.14962e-005	6.19487e-005
    27	4.56105e-007	6.14999e-005	6.1956e-005
    28	4.61061e-007	6.15044e-005	6.19655e-005
    29	4.58194e-007	6.15081e-005	6.19663e-005
    30	4.67506e-007	6.15122e-005	6.19797e-005
    31	4.56124e-007	6.15163e-005	6.19724e-005
    32	4.58618e-007	6.152e-005	6.19786e-005
    33	4.60135e-007	6.15242e-005	6.19844e-005
    34	4.5748e-007	6.15282e-005	6.19857e-005
    35	4.68467e-007	6.15324e-005	6.20009e-005
    36	4.61161e-007	6.15357e-005	6.19969e-005
    37	4.60436e-007	6.15402e-005	6.20007e-005
    38	4.6053e-007	6.15442e-005	6.20048e-005
    39	4.65985e-007	6.15479e-005	6.20139e-005
    40	4.64511e-007	6.15523e-005	6.20168e-005
    41	4.63005e-007	6.15562e-005	6.20192e-005
    42	4.67504e-007	6.15602e-005	6.20277e-005
    43	4.68581e-007	6.15635e-005	6.2032e-005
    44	4.6913e-007	6.15676e-005	6.20367e-005
    45	4.69136e-007	6.15719e-005	6.2041e-005
    46	4.69631e-007	6.15753e-005	6.20449e-005
    47	4.75481e-007	6.15794e-005	6.20549e-005
    48	4.73101e-007	6.15839e-005	6.2057e-005
    49	4.79497e-007	6.15874e-005	6.20669e-005
    50	4.74618e-007	6.1592e-005	6.20666e-005
    51	4.71671e-007	6.15955e-005	6.20671e-005
    52	4.79521e-007	6.15994e-005	6.20789e-005
    53	4.73467e-007	6.16034e-005	6.20768e-005
    54	4.74144e-007	6.1607e-005	6.20811e-005
    55	4.75707e-007	6.1611e-005	6.20867e-005
    56	4.7647e-007	6.16153e-005	6.20917e-005
    57	4.77465e-007	6.16193e-005	6.20967e-005
    58	4.79931e-007	6.16232e-005	6.21032e-005
    59	4.85798e-007	6.16272e-005	6.2113e-005
    60	4.84493e-007	6.16316e-005	6.21161e-005
    61	4.94615e-007	6.16351e-005	6.21297e-005
    62	4.90988e-007	6.16394e-005	6.21304e-005
    63	4.88583e-007	6.16431e-005	6.21317e-005
    64	4.81998e-007	6.16472e-005	6.21292e-005
    65	4.91752e-007	6.16516e-005	6.21433e-005
    66	4.9078e-007	6.1655e-005	6.21457e-005
    67	4.92709e-007	6.16588e-005	6.21515e-005
    68	4.9276e-007	6.1663e-005	6.21558e-005
    69	4.91758e-007	6.16673e-005	6.21591e-005
    70	4.91518e-007	6.16712e-005	6.21627e-005
    71	4.94247e-007	6.1675e-005	6.21693e-005
    72	4.99984e-007	6.16787e-005	6.21787e-005
    73	5.03346e-007	6.16826e-005	6.21859e-005
    74	4.97529e-007	6.16872e-005	6.21847e-005
    75	5.00622e-007	6.16906e-005	6.21912e-005
    76	4.9765e-007	6.16952e-005	6.21928e-005
    77	5.00582e-007	6.16985e-005	6.21991e-005
    78	5.05851e-007	6.17025e-005	6.22083e-005
    79	5.06623e-007	6.17067e-005	6.22133e-005
    80	4.95715e-007	6.17107e-005	6.22064e-005
    81	4.97796e-007	6.17147e-005	6.22125e-005
    82	4.99269e-007	6.17186e-005	6.22179e-005
    83	4.98915e-007	6.17219e-005	6.22208e-005
    84	5.11045e-007	6.17265e-005	6.22375e-005
    85	5.11203e-007	6.17308e-005	6.2242e-005
    86	5.12479e-007	6.17342e-005	6.22467e-005
    87	5.1244e-007	6.17378e-005	6.22502e-005
    88	5.13881e-007	6.17419e-005	6.22558e-005
    89	5.14593e-007	6.17459e-005	6.22604e-005
    90	5.15298e-007	6.17498e-005	6.22651e-005
    91	5.16004e-007	6.17537e-005	6.22697e-005
    92	5.16705e-007	6.17577e-005	6.22744e-005
    93	5.17402e-007	6.17617e-005	6.22791e-005
    94	5.04776e-007	6.17665e-005	6.22712e-005
    95	5.1882e-007	6.17698e-005	6.22887e-005
    96	5.15546e-007	6.17739e-005	6.22894e-005
    97	5.2016e-007	6.17778e-005	6.2298e-005
    98	5.16722e-007	6.17821e-005	6.22988e-005
    99	5.17223e-007	6.17857e-005	6.2303e-005
   100	5.19147e-007	6.17897e-005	6.23089e-005
   101	5.21567e-007	6.17936e-005	6.23151e-005

Measurement: vth
  step	v(n004)	at
     1	2.66435	2.01953e-005
     2	2.66329	2.01959e-005
     3	2.66194	2.01968e-005
     4	2.66063	2.01976e-005
     5	2.65936	2.01985e-005
     6	2.6583	2.01991e-005
     7	2.65719	2.01998e-005
     8	2.65617	2.02004e-005
     9	2.65513	2.02012e-005
    10	2.65446	2.02019e-005
    11	2.65344	2.02027e-005
    12	2.65242	2.02034e-005
    13	2.65141	2.02042e-005
    14	2.65046	2.0205e-005
    15	2.64953	2.02057e-005
    16	2.64858	2.02065e-005
    17	2.6479	2.02071e-005
    18	2.64701	2.02078e-005
    19	2.64609	2.02086e-005
    20	2.64501	2.02094e-005
    21	2.64418	2.02102e-005
    22	2.64316	2.0211e-005
    23	2.64233	2.02117e-005
    24	2.64156	2.02125e-005
    25	2.64057	2.02134e-005
    26	2.6397	2.02141e-005
    27	2.63884	2.02149e-005
    28	2.638	2.02157e-005
    29	2.63718	2.02165e-005
    30	2.63636	2.02173e-005
    31	2.63554	2.0218e-005
    32	2.63473	2.02188e-005
    33	2.63393	2.02196e-005
    34	2.63313	2.02204e-005
    35	2.63217	2.02214e-005
    36	2.63143	2.02221e-005
    37	2.63071	2.02229e-005
    38	2.63	2.02236e-005
    39	2.62932	2.02244e-005
    40	2.62862	2.02251e-005
    41	2.62794	2.02259e-005
    42	2.62727	2.02266e-005
    43	2.62662	2.02274e-005
    44	2.62597	2.02281e-005
    45	2.62526	2.02289e-005
    46	2.62465	2.02296e-005
    47	2.62404	2.02303e-005
    48	2.62339	2.02312e-005
    49	2.62279	2.02319e-005
    50	2.62219	2.02327e-005
    51	2.62144	2.02335e-005
    52	2.62064	2.02345e-005
    53	2.61986	2.02355e-005
    54	2.6191	2.02364e-005
    55	2.61835	2.02373e-005
    56	2.6176	2.02382e-005
    57	2.61692	2.0239e-005
    58	2.61626	2.02398e-005
    59	2.61561	2.02407e-005
    60	2.61497	2.02415e-005
    61	2.61435	2.02423e-005
    62	2.61372	2.02431e-005
    63	2.61315	2.02438e-005
    64	2.61261	2.02446e-005
    65	2.61218	2.02449e-005
    66	2.61164	2.02457e-005
    67	2.61112	2.02464e-005
    68	2.61059	2.02472e-005
    69	2.61006	2.0248e-005
    70	2.60954	2.02487e-005
    71	2.60905	2.02495e-005
    72	2.60856	2.02502e-005
    73	2.60789	2.02514e-005
    74	2.60759	2.0252e-005
    75	2.60707	2.02527e-005
    76	2.60665	2.02534e-005
    77	2.60622	2.02541e-005
    78	2.60578	2.02549e-005
    79	2.6053	2.02557e-005
    80	2.60467	2.02566e-005
    81	2.60407	2.02575e-005
    82	2.60351	2.02584e-005
    83	2.60298	2.02592e-005
    84	2.60245	2.02598e-005
    85	2.60217	2.02603e-005
    86	2.60136	2.02616e-005
    87	2.60135	2.02619e-005
    88	2.60078	2.02628e-005
    89	2.60007	2.02637e-005
    90	2.59949	2.02647e-005
    91	2.59939	2.02651e-005
    92	2.59877	2.02662e-005
    93	2.5985	2.02667e-005
    94	2.59771	2.0268e-005
    95	2.59753	2.02683e-005
    96	2.59685	2.02693e-005
    97	2.59661	2.027e-005
    98	2.59593	2.02711e-005
    99	2.59555	2.02717e-005
   100	2.59519	2.02725e-005
   101	2.59496	2.02731e-005


Date: Tue Mar 22 14:31:37 2022
Total elapsed time: 1.377 seconds.

tnom = 27
temp = 27
method = modified trap
totiter = 2677
traniter = 2647
tranpoints = 1129
accept = 1100
rejected = 29
matrix size = 11
fillins = 0
solver = Normal
Matrix Compiler1: 674 bytes object code size  0.1/0.1/[0.1]
Matrix Compiler2: off  [0.1]/0.1/0.1

