Circuit: * C:\Users\user\Documents\LTspiceXVII\file\Montecarlo\monte_SiC.asc

Direct Newton iteration for .op point succeeded.
.step tol1=0
.step tol1=0.01
.step tol1=0.02
.step tol1=0.03
.step tol1=0.04
.step tol1=0.05
.step tol1=0.06
.step tol1=0.07
.step tol1=0.08
.step tol1=0.09
.step tol1=0.1
.step tol1=0.11
.step tol1=0.12
.step tol1=0.13
.step tol1=0.14
.step tol1=0.15
.step tol1=0.16
.step tol1=0.17
.step tol1=0.18
.step tol1=0.19
.step tol1=0.2
.step tol1=0.21
.step tol1=0.22
.step tol1=0.23
.step tol1=0.24
.step tol1=0.25
.step tol1=0.26
.step tol1=0.27
.step tol1=0.28
.step tol1=0.29
.step tol1=0.3
.step tol1=0.31
.step tol1=0.32
.step tol1=0.33
.step tol1=0.34
.step tol1=0.35
.step tol1=0.36
.step tol1=0.37
.step tol1=0.38
.step tol1=0.39
.step tol1=0.4
.step tol1=0.41
.step tol1=0.42
.step tol1=0.43
.step tol1=0.44
.step tol1=0.45
.step tol1=0.46
.step tol1=0.47
.step tol1=0.48
.step tol1=0.49
.step tol1=0.5
.step tol1=0.51
.step tol1=0.52
.step tol1=0.53
.step tol1=0.54
.step tol1=0.55
.step tol1=0.56
.step tol1=0.57
.step tol1=0.58
.step tol1=0.59
.step tol1=0.6
.step tol1=0.61
.step tol1=0.62
.step tol1=0.63
.step tol1=0.64
.step tol1=0.65
.step tol1=0.66
.step tol1=0.67
.step tol1=0.68
.step tol1=0.69
.step tol1=0.7
.step tol1=0.71
.step tol1=0.72
.step tol1=0.73
.step tol1=0.74
.step tol1=0.75
.step tol1=0.76
.step tol1=0.77
.step tol1=0.78
.step tol1=0.79
.step tol1=0.8
.step tol1=0.81
.step tol1=0.82
.step tol1=0.83
.step tol1=0.84
.step tol1=0.85
.step tol1=0.86
.step tol1=0.87
.step tol1=0.88
.step tol1=0.89
.step tol1=0.9
.step tol1=0.91
.step tol1=0.92
.step tol1=0.93
.step tol1=0.94
.step tol1=0.95
.step tol1=0.96
.step tol1=0.97
.step tol1=0.98
.step tol1=0.99
.step tol1=1


Measurement: imax
  step	MAX(-i(v1))	FROM	TO
     1	0.998033	0	0.0001
     2	0.998035	0	0.0001
     3	0.998036	0	0.0001
     4	0.998034	0	0.0001
     5	0.998035	0	0.0001
     6	0.998035	0	0.0001
     7	0.998034	0	0.0001
     8	0.998034	0	0.0001
     9	0.998034	0	0.0001
    10	0.998033	0	0.0001
    11	0.998034	0	0.0001
    12	0.998034	0	0.0001
    13	0.998033	0	0.0001
    14	0.998033	0	0.0001
    15	0.998034	0	0.0001
    16	0.998035	0	0.0001
    17	0.998034	0	0.0001
    18	0.998035	0	0.0001
    19	0.998034	0	0.0001
    20	0.998033	0	0.0001
    21	0.998034	0	0.0001
    22	0.998035	0	0.0001
    23	0.998034	0	0.0001
    24	0.998033	0	0.0001
    25	0.998034	0	0.0001
    26	0.998034	0	0.0001
    27	0.998034	0	0.0001
    28	0.998034	0	0.0001
    29	0.998034	0	0.0001
    30	0.998034	0	0.0001
    31	0.998034	0	0.0001
    32	0.998034	0	0.0001
    33	0.998034	0	0.0001
    34	0.998034	0	0.0001
    35	0.998034	0	0.0001
    36	0.998033	0	0.0001
    37	0.998034	0	0.0001
    38	0.998036	0	0.0001
    39	0.998034	0	0.0001
    40	0.998033	0	0.0001
    41	0.998034	0	0.0001
    42	0.998034	0	0.0001
    43	0.998036	0	0.0001
    44	0.998035	0	0.0001
    45	0.998034	0	0.0001
    46	0.998035	0	0.0001
    47	0.998035	0	0.0001
    48	0.998035	0	0.0001
    49	0.998034	0	0.0001
    50	0.998035	0	0.0001
    51	0.998034	0	0.0001
    52	0.998034	0	0.0001
    53	0.998034	0	0.0001
    54	0.998034	0	0.0001
    55	0.998034	0	0.0001
    56	0.998035	0	0.0001
    57	0.998035	0	0.0001
    58	0.998034	0	0.0001
    59	0.998036	0	0.0001
    60	0.998034	0	0.0001
    61	0.998034	0	0.0001
    62	0.998035	0	0.0001
    63	0.998034	0	0.0001
    64	0.998035	0	0.0001
    65	0.998035	0	0.0001
    66	0.998034	0	0.0001
    67	0.998034	0	0.0001
    68	0.998034	0	0.0001
    69	0.998036	0	0.0001
    70	0.998035	0	0.0001
    71	0.998034	0	0.0001
    72	0.998034	0	0.0001
    73	0.998036	0	0.0001
    74	0.998034	0	0.0001
    75	0.998036	0	0.0001
    76	0.998034	0	0.0001
    77	0.998034	0	0.0001
    78	0.998034	0	0.0001
    79	0.998035	0	0.0001
    80	0.998034	0	0.0001
    81	0.998034	0	0.0001
    82	0.998034	0	0.0001
    83	0.998034	0	0.0001
    84	0.998034	0	0.0001
    85	0.998034	0	0.0001
    86	0.998034	0	0.0001
    87	0.998034	0	0.0001
    88	0.998035	0	0.0001
    89	0.998034	0	0.0001
    90	0.998035	0	0.0001
    91	0.998034	0	0.0001
    92	0.998034	0	0.0001
    93	0.998034	0	0.0001
    94	0.998036	0	0.0001
    95	0.998034	0	0.0001
    96	0.998034	0	0.0001
    97	0.998035	0	0.0001
    98	0.998034	0	0.0001
    99	0.998034	0	0.0001
   100	0.998034	0	0.0001
   101	0.998035	0	0.0001

Measurement: tr1
  step	tr1	FROM	TO
     1	1.46403e-007	2.01363e-005	2.02827e-005
     2	1.46917e-007	2.01368e-005	2.02838e-005
     3	1.47123e-007	2.01374e-005	2.02845e-005
     4	1.47701e-007	2.0138e-005	2.02857e-005
     5	1.48121e-007	2.01385e-005	2.02866e-005
     6	1.47364e-007	2.01391e-005	2.02864e-005
     7	1.49249e-007	2.01396e-005	2.02889e-005
     8	1.49861e-007	2.01402e-005	2.029e-005
     9	1.49979e-007	2.01407e-005	2.02907e-005
    10	1.50385e-007	2.01412e-005	2.02916e-005
    11	1.48518e-007	2.01418e-005	2.02903e-005
    12	1.4894e-007	2.01423e-005	2.02912e-005
    13	1.50363e-007	2.01428e-005	2.02932e-005
    14	1.50223e-007	2.01433e-005	2.02935e-005
    15	1.5019e-007	2.01438e-005	2.02939e-005
    16	1.50206e-007	2.01442e-005	2.02944e-005
    17	1.50285e-007	2.01447e-005	2.0295e-005
    18	1.50422e-007	2.01451e-005	2.02956e-005
    19	1.50613e-007	2.01456e-005	2.02962e-005
    20	1.50847e-007	2.0146e-005	2.02969e-005
    21	1.49408e-007	2.01468e-005	2.02962e-005
    22	1.48804e-007	2.01474e-005	2.02962e-005
    23	1.4858e-007	2.01481e-005	2.02966e-005
    24	1.4868e-007	2.01487e-005	2.02973e-005
    25	1.48726e-007	2.01493e-005	2.0298e-005
    26	1.48839e-007	2.01499e-005	2.02987e-005
    27	1.48884e-007	2.01505e-005	2.02994e-005
    28	1.48985e-007	2.01511e-005	2.03001e-005
    29	1.49107e-007	2.01517e-005	2.03008e-005
    30	1.49225e-007	2.01522e-005	2.03015e-005
    31	1.49346e-007	2.01528e-005	2.03022e-005
    32	1.49474e-007	2.01534e-005	2.03028e-005
    33	1.49611e-007	2.01539e-005	2.03035e-005
    34	1.49758e-007	2.01544e-005	2.03042e-005
    35	1.49924e-007	2.01549e-005	2.03048e-005
    36	1.50128e-007	2.01554e-005	2.03055e-005
    37	1.50324e-007	2.01558e-005	2.03061e-005
    38	1.54892e-007	2.01563e-005	2.03112e-005
    39	1.54252e-007	2.01561e-005	2.03103e-005
    40	1.53535e-007	2.01567e-005	2.03103e-005
    41	1.52827e-007	2.01574e-005	2.03102e-005
    42	1.5214e-007	2.01581e-005	2.03103e-005
    43	1.52167e-007	2.01588e-005	2.0311e-005
    44	1.51436e-007	2.01595e-005	2.03109e-005
    45	1.51364e-007	2.01602e-005	2.03116e-005
    46	1.51355e-007	2.01609e-005	2.03123e-005
    47	1.51324e-007	2.01617e-005	2.0313e-005
    48	1.51278e-007	2.01624e-005	2.03137e-005
    49	1.51175e-007	2.01632e-005	2.03143e-005
    50	1.51146e-007	2.01639e-005	2.03151e-005
    51	1.51229e-007	2.01647e-005	2.03159e-005
    52	1.549e-007	2.01654e-005	2.03203e-005
    53	1.51194e-007	2.01662e-005	2.03174e-005
    54	1.51155e-007	2.0167e-005	2.03182e-005
    55	1.51099e-007	2.01678e-005	2.03189e-005
    56	1.50999e-007	2.01686e-005	2.03196e-005
    57	1.54859e-007	2.01692e-005	2.03241e-005
    58	1.55702e-007	2.01697e-005	2.03254e-005
    59	1.55069e-007	2.01702e-005	2.03253e-005
    60	1.55106e-007	2.01707e-005	2.03258e-005
    61	1.55037e-007	2.01712e-005	2.03263e-005
    62	1.56236e-007	2.01717e-005	2.0328e-005
    63	1.53233e-007	2.01722e-005	2.03254e-005
    64	1.53536e-007	2.01727e-005	2.03262e-005
    65	1.53685e-007	2.01732e-005	2.03268e-005
    66	1.5405e-007	2.01736e-005	2.03277e-005
    67	1.54441e-007	2.01741e-005	2.03285e-005
    68	1.56219e-007	2.01749e-005	2.03311e-005
    69	1.55924e-007	2.01754e-005	2.03314e-005
    70	1.55417e-007	2.0176e-005	2.03314e-005
    71	1.54742e-007	2.01766e-005	2.03314e-005
    72	1.54113e-007	2.01772e-005	2.03313e-005
    73	1.57581e-007	2.01778e-005	2.03354e-005
    74	1.53105e-007	2.01784e-005	2.03315e-005
    75	1.57506e-007	2.0179e-005	2.03365e-005
    76	1.5745e-007	2.01796e-005	2.03371e-005
    77	1.57679e-007	2.01802e-005	2.03379e-005
    78	1.57376e-007	2.01809e-005	2.03382e-005
    79	1.536e-007	2.01815e-005	2.03351e-005
    80	1.53663e-007	2.01822e-005	2.03358e-005
    81	1.53654e-007	2.01828e-005	2.03364e-005
    82	1.53657e-007	2.01835e-005	2.03371e-005
    83	1.53676e-007	2.01841e-005	2.03378e-005
    84	1.53597e-007	2.01848e-005	2.03384e-005
    85	1.53637e-007	2.01855e-005	2.03391e-005
    86	1.53659e-007	2.01861e-005	2.03398e-005
    87	1.53669e-007	2.01868e-005	2.03405e-005
    88	1.57771e-007	2.01875e-005	2.03453e-005
    89	1.53855e-007	2.01882e-005	2.03421e-005
    90	1.53886e-007	2.01889e-005	2.03428e-005
    91	1.57751e-007	2.01896e-005	2.03473e-005
    92	1.57774e-007	2.01903e-005	2.03481e-005
    93	1.58266e-007	2.0191e-005	2.03492e-005
    94	1.58308e-007	2.01917e-005	2.035e-005
    95	1.58345e-007	2.01924e-005	2.03507e-005
    96	1.58426e-007	2.0193e-005	2.03514e-005
    97	1.58018e-007	2.01936e-005	2.03516e-005
    98	1.58185e-007	2.01941e-005	2.03523e-005
    99	1.58263e-007	2.01947e-005	2.03529e-005
   100	1.59112e-007	2.01952e-005	2.03543e-005
   101	1.58364e-007	2.01958e-005	2.03541e-005

Measurement: tr2
  step	tr2	FROM	TO
     1	4.44971e-007	6.13959e-005	6.18409e-005
     2	4.41357e-007	6.13994e-005	6.18408e-005
     3	4.37248e-007	6.14019e-005	6.18392e-005
     4	4.36782e-007	6.14052e-005	6.1842e-005
     5	4.41733e-007	6.14082e-005	6.185e-005
     6	4.41622e-007	6.14113e-005	6.1853e-005
     7	4.41853e-007	6.14143e-005	6.18561e-005
     8	4.41864e-007	6.14176e-005	6.18594e-005
     9	4.41875e-007	6.14206e-005	6.18624e-005
    10	4.38633e-007	6.14223e-005	6.1861e-005
    11	4.39327e-007	6.14257e-005	6.1865e-005
    12	4.34299e-007	6.14284e-005	6.18627e-005
    13	4.46175e-007	6.14314e-005	6.18776e-005
    14	4.49706e-007	6.14345e-005	6.18842e-005
    15	4.34673e-007	6.14379e-005	6.18725e-005
    16	4.38254e-007	6.14406e-005	6.18789e-005
    17	4.44996e-007	6.14442e-005	6.18892e-005
    18	4.44172e-007	6.14468e-005	6.18909e-005
    19	4.37664e-007	6.14491e-005	6.18868e-005
    20	4.37639e-007	6.14522e-005	6.18899e-005
    21	4.38968e-007	6.14554e-005	6.18944e-005
    22	4.39159e-007	6.1458e-005	6.18972e-005
    23	4.38173e-007	6.1461e-005	6.18991e-005
    24	4.41214e-007	6.1464e-005	6.19052e-005
    25	4.3783e-007	6.1467e-005	6.19048e-005
    26	4.48695e-007	6.14702e-005	6.19189e-005
    27	4.52729e-007	6.14731e-005	6.19258e-005
    28	4.38196e-007	6.14764e-005	6.19146e-005
    29	4.41032e-007	6.14795e-005	6.19206e-005
    30	4.41851e-007	6.14821e-005	6.1924e-005
    31	4.48583e-007	6.14854e-005	6.19339e-005
    32	4.39855e-007	6.14872e-005	6.19271e-005
    33	4.38309e-007	6.1491e-005	6.19293e-005
    34	4.54147e-007	6.14939e-005	6.1948e-005
    35	4.48145e-007	6.14963e-005	6.19444e-005
    36	4.43629e-007	6.14992e-005	6.19428e-005
    37	4.44494e-007	6.1503e-005	6.19475e-005
    38	4.4881e-007	6.15056e-005	6.19545e-005
    39	4.49228e-007	6.15087e-005	6.19579e-005
    40	4.49023e-007	6.15113e-005	6.19603e-005
    41	4.43386e-007	6.15151e-005	6.19585e-005
    42	4.42683e-007	6.15178e-005	6.19605e-005
    43	4.51081e-007	6.15206e-005	6.19716e-005
    44	4.43844e-007	6.15228e-005	6.19666e-005
    45	4.42805e-007	6.15256e-005	6.19684e-005
    46	4.58995e-007	6.153e-005	6.1989e-005
    47	4.45578e-007	6.15323e-005	6.19779e-005
    48	4.51539e-007	6.15351e-005	6.19866e-005
    49	4.5339e-007	6.15389e-005	6.19923e-005
    50	4.54378e-007	6.15412e-005	6.19955e-005
    51	4.50162e-007	6.15447e-005	6.19948e-005
    52	4.52884e-007	6.15474e-005	6.20003e-005
    53	4.44148e-007	6.15495e-005	6.19936e-005
    54	4.47497e-007	6.15532e-005	6.20007e-005
    55	4.49364e-007	6.15564e-005	6.20058e-005
    56	4.48814e-007	6.15591e-005	6.20079e-005
    57	4.49201e-007	6.15624e-005	6.20116e-005
    58	4.46809e-007	6.15649e-005	6.20117e-005
    59	4.61514e-007	6.15683e-005	6.20298e-005
    60	4.50893e-007	6.15712e-005	6.20221e-005
    61	4.46922e-007	6.1574e-005	6.2021e-005
    62	4.48951e-007	6.15771e-005	6.20261e-005
    63	4.51117e-007	6.15796e-005	6.20307e-005
    64	4.47267e-007	6.15827e-005	6.20299e-005
    65	4.51813e-007	6.1585e-005	6.20368e-005
    66	4.47713e-007	6.15885e-005	6.20363e-005
    67	4.51576e-007	6.15911e-005	6.20427e-005
    68	4.55723e-007	6.15949e-005	6.20506e-005
    69	4.50149e-007	6.15977e-005	6.20478e-005
    70	4.46525e-007	6.16008e-005	6.20473e-005
    71	4.4672e-007	6.16037e-005	6.20504e-005
    72	4.49793e-007	6.16057e-005	6.20555e-005
    73	4.58043e-007	6.16098e-005	6.20678e-005
    74	4.57581e-007	6.16129e-005	6.20705e-005
    75	4.57017e-007	6.16153e-005	6.20723e-005
    76	4.54689e-007	6.16186e-005	6.20733e-005
    77	4.50728e-007	6.16209e-005	6.20716e-005
    78	4.50799e-007	6.16239e-005	6.20747e-005
    79	4.56608e-007	6.16269e-005	6.20835e-005
    80	4.57065e-007	6.16298e-005	6.20868e-005
    81	4.56635e-007	6.16335e-005	6.20902e-005
    82	4.57216e-007	6.16362e-005	6.20934e-005
    83	4.5737e-007	6.16387e-005	6.20961e-005
    84	4.57631e-007	6.16417e-005	6.20993e-005
    85	4.57775e-007	6.1645e-005	6.21028e-005
    86	4.56724e-007	6.16482e-005	6.21049e-005
    87	4.55415e-007	6.16507e-005	6.21061e-005
    88	4.58728e-007	6.16548e-005	6.21135e-005
    89	4.59329e-007	6.16573e-005	6.21167e-005
    90	4.58768e-007	6.16603e-005	6.21191e-005
    91	4.53548e-007	6.16624e-005	6.21159e-005
    92	4.54788e-007	6.1666e-005	6.21208e-005
    93	4.66708e-007	6.16687e-005	6.21354e-005
    94	4.64483e-007	6.16718e-005	6.21363e-005
    95	4.64167e-007	6.16751e-005	6.21393e-005
    96	4.64856e-007	6.16777e-005	6.21426e-005
    97	4.64927e-007	6.16806e-005	6.21456e-005
    98	4.64177e-007	6.16836e-005	6.21477e-005
    99	4.70752e-007	6.16871e-005	6.21579e-005
   100	4.60297e-007	6.16895e-005	6.21498e-005
   101	4.57311e-007	6.16922e-005	6.21495e-005

Measurement: vth
  step	v(n004)	at
     1	2.66435	2.01953e-005
     2	2.66445	2.01958e-005
     3	2.66451	2.01964e-005
     4	2.66428	2.01971e-005
     5	2.66417	2.01978e-005
     6	2.66407	2.01986e-005
     7	2.66396	2.01993e-005
     8	2.66401	2.01998e-005
     9	2.66404	2.02003e-005
    10	2.664	2.02009e-005
    11	2.66402	2.02015e-005
    12	2.66405	2.02021e-005
    13	2.66449	2.02027e-005
    14	2.66452	2.02033e-005
    15	2.66453	2.02039e-005
    16	2.66454	2.02046e-005
    17	2.66455	2.02052e-005
    18	2.66456	2.02058e-005
    19	2.66457	2.02065e-005
    20	2.66457	2.02071e-005
    21	2.66474	2.02077e-005
    22	2.66486	2.02082e-005
    23	2.66498	2.02088e-005
    24	2.66508	2.02094e-005
    25	2.66517	2.021e-005
    26	2.66524	2.02106e-005
    27	2.66513	2.02113e-005
    28	2.66519	2.02119e-005
    29	2.66524	2.02125e-005
    30	2.66527	2.02132e-005
    31	2.66528	2.02138e-005
    32	2.66528	2.02144e-005
    33	2.66525	2.02151e-005
    34	2.66522	2.02158e-005
    35	2.66517	2.02164e-005
    36	2.6651	2.02171e-005
    37	2.66505	2.02178e-005
    38	2.66502	2.02185e-005
    39	2.66475	2.02194e-005
    40	2.66479	2.022e-005
    41	2.66484	2.02206e-005
    42	2.66491	2.02211e-005
    43	2.66496	2.02218e-005
    44	2.66504	2.02224e-005
    45	2.66511	2.0223e-005
    46	2.66519	2.02236e-005
    47	2.66527	2.02242e-005
    48	2.66536	2.02248e-005
    49	2.66542	2.02255e-005
    50	2.66554	2.0226e-005
    51	2.66558	2.02267e-005
    52	2.66561	2.02273e-005
    53	2.6655	2.02281e-005
    54	2.6653	2.02289e-005
    55	2.66511	2.02297e-005
    56	2.66492	2.02306e-005
    57	2.66472	2.02314e-005
    58	2.66459	2.02322e-005
    59	2.66452	2.02328e-005
    60	2.66445	2.02335e-005
    61	2.6644	2.02341e-005
    62	2.6644	2.02348e-005
    63	2.66464	2.02349e-005
    64	2.66471	2.02355e-005
    65	2.66479	2.02361e-005
    66	2.66485	2.02367e-005
    67	2.66492	2.02373e-005
    68	2.66463	2.02385e-005
    69	2.66453	2.02392e-005
    70	2.6645	2.02398e-005
    71	2.66454	2.02404e-005
    72	2.6646	2.0241e-005
    73	2.66466	2.02416e-005
    74	2.66473	2.02422e-005
    75	2.66481	2.02428e-005
    76	2.66489	2.02434e-005
    77	2.66496	2.0244e-005
    78	2.66504	2.02446e-005
    79	2.66512	2.02452e-005
    80	2.66518	2.02458e-005
    81	2.66514	2.02465e-005
    82	2.66515	2.02472e-005
    83	2.6652	2.02478e-005
    84	2.66519	2.02485e-005
    85	2.66527	2.02491e-005
    86	2.66534	2.02497e-005
    87	2.66539	2.02503e-005
    88	2.66546	2.0251e-005
    89	2.66552	2.02516e-005
    90	2.66545	2.02523e-005
    91	2.66533	2.02531e-005
    92	2.66522	2.02539e-005
    93	2.66512	2.02546e-005
    94	2.66503	2.02554e-005
    95	2.66493	2.02561e-005
    96	2.66484	2.02568e-005
    97	2.66476	2.02575e-005
    98	2.66468	2.02582e-005
    99	2.66459	2.0259e-005
   100	2.66457	2.02596e-005
   101	2.66455	2.02603e-005


Date: Tue Mar 22 14:30:17 2022
Total elapsed time: 1.204 seconds.

tnom = 27
temp = 27
method = modified trap
totiter = 2708
traniter = 2679
tranpoints = 1141
accept = 1110
rejected = 31
matrix size = 11
fillins = 0
solver = Normal
Matrix Compiler1: 674 bytes object code size  0.2/0.1/[0.1]
Matrix Compiler2: off  [0.1]/0.1/0.1

