Circuit: * C:\Users\user\Documents\LTspiceXVII\file\Montecarlo\monte_SiC.asc

Direct Newton iteration for .op point succeeded.
.step tol1=0
.step tol1=0.01
.step tol1=0.02
.step tol1=0.03
.step tol1=0.04
.step tol1=0.05
.step tol1=0.06
.step tol1=0.07
.step tol1=0.08
.step tol1=0.09
.step tol1=0.1
.step tol1=0.11
.step tol1=0.12
.step tol1=0.13
.step tol1=0.14
.step tol1=0.15
.step tol1=0.16
.step tol1=0.17
.step tol1=0.18
.step tol1=0.19
.step tol1=0.2
.step tol1=0.21
.step tol1=0.22
.step tol1=0.23
.step tol1=0.24
.step tol1=0.25
.step tol1=0.26
.step tol1=0.27
.step tol1=0.28
.step tol1=0.29
.step tol1=0.3
.step tol1=0.31
.step tol1=0.32
.step tol1=0.33
.step tol1=0.34
.step tol1=0.35
.step tol1=0.36
.step tol1=0.37
.step tol1=0.38
.step tol1=0.39
.step tol1=0.4
.step tol1=0.41
.step tol1=0.42
.step tol1=0.43
.step tol1=0.44
.step tol1=0.45
.step tol1=0.46
.step tol1=0.47
.step tol1=0.48
.step tol1=0.49
.step tol1=0.5
.step tol1=0.51
.step tol1=0.52
.step tol1=0.53
.step tol1=0.54
.step tol1=0.55
.step tol1=0.56
.step tol1=0.57
.step tol1=0.58
.step tol1=0.59
.step tol1=0.6
.step tol1=0.61
.step tol1=0.62
.step tol1=0.63
.step tol1=0.64
.step tol1=0.65
.step tol1=0.66
.step tol1=0.67
.step tol1=0.68
.step tol1=0.69
.step tol1=0.7
.step tol1=0.71
.step tol1=0.72
.step tol1=0.73
.step tol1=0.74
.step tol1=0.75
.step tol1=0.76
.step tol1=0.77
.step tol1=0.78
.step tol1=0.79
.step tol1=0.8
.step tol1=0.81
.step tol1=0.82
.step tol1=0.83
.step tol1=0.84
.step tol1=0.85
.step tol1=0.86
.step tol1=0.87
.step tol1=0.88
.step tol1=0.89
.step tol1=0.9
.step tol1=0.91
.step tol1=0.92
.step tol1=0.93
.step tol1=0.94
.step tol1=0.95
.step tol1=0.96
.step tol1=0.97
.step tol1=0.98
.step tol1=0.99
.step tol1=1


Measurement: imax
  step	MAX(-i(v1))	FROM	TO
     1	0.998033	0	0.0001
     2	0.998031	0	0.0001
     3	0.998029	0	0.0001
     4	0.998026	0	0.0001
     5	0.998024	0	0.0001
     6	0.998021	0	0.0001
     7	0.998019	0	0.0001
     8	0.998016	0	0.0001
     9	0.998014	0	0.0001
    10	0.998011	0	0.0001
    11	0.998009	0	0.0001
    12	0.998006	0	0.0001
    13	0.998004	0	0.0001
    14	0.998001	0	0.0001
    15	0.997999	0	0.0001
    16	0.997996	0	0.0001
    17	0.997994	0	0.0001
    18	0.997991	0	0.0001
    19	0.997989	0	0.0001
    20	0.997986	0	0.0001
    21	0.997984	0	0.0001
    22	0.997981	0	0.0001
    23	0.997979	0	0.0001
    24	0.997976	0	0.0001
    25	0.997974	0	0.0001
    26	0.997971	0	0.0001
    27	0.997969	0	0.0001
    28	0.997966	0	0.0001
    29	0.997964	0	0.0001
    30	0.997961	0	0.0001
    31	0.997959	0	0.0001
    32	0.997956	0	0.0001
    33	0.997954	0	0.0001
    34	0.997951	0	0.0001
    35	0.997949	0	0.0001
    36	0.997946	0	0.0001
    37	0.997944	0	0.0001
    38	0.997941	0	0.0001
    39	0.997939	0	0.0001
    40	0.997936	0	0.0001
    41	0.997934	0	0.0001
    42	0.997932	0	0.0001
    43	0.997929	0	0.0001
    44	0.997927	0	0.0001
    45	0.997924	0	0.0001
    46	0.997922	0	0.0001
    47	0.997919	0	0.0001
    48	0.997917	0	0.0001
    49	0.997914	0	0.0001
    50	0.997912	0	0.0001
    51	0.997909	0	0.0001
    52	0.997907	0	0.0001
    53	0.997904	0	0.0001
    54	0.997902	0	0.0001
    55	0.997899	0	0.0001
    56	0.997897	0	0.0001
    57	0.997894	0	0.0001
    58	0.997892	0	0.0001
    59	0.997889	0	0.0001
    60	0.997887	0	0.0001
    61	0.997884	0	0.0001
    62	0.997882	0	0.0001
    63	0.997879	0	0.0001
    64	0.997877	0	0.0001
    65	0.997874	0	0.0001
    66	0.997872	0	0.0001
    67	0.997869	0	0.0001
    68	0.997867	0	0.0001
    69	0.997864	0	0.0001
    70	0.997862	0	0.0001
    71	0.997859	0	0.0001
    72	0.997857	0	0.0001
    73	0.997854	0	0.0001
    74	0.997852	0	0.0001
    75	0.997849	0	0.0001
    76	0.997847	0	0.0001
    77	0.997845	0	0.0001
    78	0.997842	0	0.0001
    79	0.99784	0	0.0001
    80	0.997837	0	0.0001
    81	0.997835	0	0.0001
    82	0.997833	0	0.0001
    83	0.99783	0	0.0001
    84	0.997827	0	0.0001
    85	0.997825	0	0.0001
    86	0.997823	0	0.0001
    87	0.99782	0	0.0001
    88	0.997818	0	0.0001
    89	0.997815	0	0.0001
    90	0.997812	0	0.0001
    91	0.99781	0	0.0001
    92	0.997807	0	0.0001
    93	0.997805	0	0.0001
    94	0.997802	0	0.0001
    95	0.9978	0	0.0001
    96	0.997797	0	0.0001
    97	0.997795	0	0.0001
    98	0.997792	0	0.0001
    99	0.99779	0	0.0001
   100	0.997787	0	0.0001
   101	0.997785	0	0.0001

Measurement: tr1
  step	tr1	FROM	TO
     1	1.46403e-007	2.01363e-005	2.02827e-005
     2	1.46408e-007	2.01363e-005	2.02827e-005
     3	1.46413e-007	2.01363e-005	2.02827e-005
     4	1.46418e-007	2.01363e-005	2.02827e-005
     5	1.46423e-007	2.01363e-005	2.02827e-005
     6	1.46428e-007	2.01363e-005	2.02827e-005
     7	1.46433e-007	2.01363e-005	2.02827e-005
     8	1.46438e-007	2.01363e-005	2.02827e-005
     9	1.46443e-007	2.01363e-005	2.02827e-005
    10	1.46448e-007	2.01363e-005	2.02827e-005
    11	1.46453e-007	2.01363e-005	2.02827e-005
    12	1.46458e-007	2.01363e-005	2.02827e-005
    13	1.46463e-007	2.01363e-005	2.02828e-005
    14	1.46468e-007	2.01363e-005	2.02828e-005
    15	1.46473e-007	2.01363e-005	2.02828e-005
    16	1.46479e-007	2.01363e-005	2.02828e-005
    17	1.46484e-007	2.01363e-005	2.02828e-005
    18	1.46489e-007	2.01363e-005	2.02828e-005
    19	1.46494e-007	2.01363e-005	2.02828e-005
    20	1.46499e-007	2.01363e-005	2.02828e-005
    21	1.46504e-007	2.01363e-005	2.02828e-005
    22	1.46509e-007	2.01363e-005	2.02828e-005
    23	1.46514e-007	2.01363e-005	2.02828e-005
    24	1.46519e-007	2.01363e-005	2.02828e-005
    25	1.46524e-007	2.01363e-005	2.02828e-005
    26	1.46529e-007	2.01363e-005	2.02828e-005
    27	1.46534e-007	2.01363e-005	2.02828e-005
    28	1.46539e-007	2.01363e-005	2.02828e-005
    29	1.46544e-007	2.01363e-005	2.02828e-005
    30	1.46549e-007	2.01363e-005	2.02828e-005
    31	1.46554e-007	2.01363e-005	2.02828e-005
    32	1.46559e-007	2.01363e-005	2.02829e-005
    33	1.46564e-007	2.01363e-005	2.02829e-005
    34	1.46569e-007	2.01363e-005	2.02829e-005
    35	1.46574e-007	2.01363e-005	2.02829e-005
    36	1.46579e-007	2.01363e-005	2.02829e-005
    37	1.46584e-007	2.01363e-005	2.02829e-005
    38	1.46589e-007	2.01363e-005	2.02829e-005
    39	1.46594e-007	2.01363e-005	2.02829e-005
    40	1.46599e-007	2.01363e-005	2.02829e-005
    41	1.46604e-007	2.01363e-005	2.02829e-005
    42	1.46609e-007	2.01363e-005	2.02829e-005
    43	1.46614e-007	2.01363e-005	2.02829e-005
    44	1.46619e-007	2.01363e-005	2.02829e-005
    45	1.46624e-007	2.01363e-005	2.02829e-005
    46	1.46629e-007	2.01363e-005	2.02829e-005
    47	1.46634e-007	2.01363e-005	2.02829e-005
    48	1.46639e-007	2.01363e-005	2.02829e-005
    49	1.46644e-007	2.01363e-005	2.02829e-005
    50	1.46649e-007	2.01363e-005	2.0283e-005
    51	1.46654e-007	2.01363e-005	2.0283e-005
    52	1.46659e-007	2.01363e-005	2.0283e-005
    53	1.46664e-007	2.01363e-005	2.0283e-005
    54	1.46669e-007	2.01363e-005	2.0283e-005
    55	1.46674e-007	2.01363e-005	2.0283e-005
    56	1.46679e-007	2.01363e-005	2.0283e-005
    57	1.46684e-007	2.01363e-005	2.0283e-005
    58	1.46689e-007	2.01363e-005	2.0283e-005
    59	1.46694e-007	2.01363e-005	2.0283e-005
    60	1.46699e-007	2.01363e-005	2.0283e-005
    61	1.46704e-007	2.01363e-005	2.0283e-005
    62	1.46709e-007	2.01363e-005	2.0283e-005
    63	1.46714e-007	2.01363e-005	2.0283e-005
    64	1.46719e-007	2.01363e-005	2.0283e-005
    65	1.46724e-007	2.01363e-005	2.0283e-005
    66	1.46729e-007	2.01363e-005	2.0283e-005
    67	1.46734e-007	2.01363e-005	2.0283e-005
    68	1.46739e-007	2.01363e-005	2.0283e-005
    69	1.46744e-007	2.01363e-005	2.02831e-005
    70	1.46749e-007	2.01363e-005	2.02831e-005
    71	1.46754e-007	2.01363e-005	2.02831e-005
    72	1.46759e-007	2.01363e-005	2.02831e-005
    73	1.46764e-007	2.01363e-005	2.02831e-005
    74	1.46769e-007	2.01363e-005	2.02831e-005
    75	1.46774e-007	2.01363e-005	2.02831e-005
    76	1.46779e-007	2.01363e-005	2.02831e-005
    77	1.46784e-007	2.01363e-005	2.02831e-005
    78	1.46789e-007	2.01363e-005	2.02831e-005
    79	1.46794e-007	2.01363e-005	2.02831e-005
    80	1.46799e-007	2.01363e-005	2.02831e-005
    81	1.46804e-007	2.01363e-005	2.02831e-005
    82	1.46809e-007	2.01363e-005	2.02831e-005
    83	1.46814e-007	2.01363e-005	2.02831e-005
    84	1.46819e-007	2.01363e-005	2.02831e-005
    85	1.46824e-007	2.01363e-005	2.02831e-005
    86	1.46829e-007	2.01363e-005	2.02831e-005
    87	1.46834e-007	2.01363e-005	2.02831e-005
    88	1.46839e-007	2.01363e-005	2.02832e-005
    89	1.46844e-007	2.01363e-005	2.02832e-005
    90	1.46849e-007	2.01363e-005	2.02832e-005
    91	1.46854e-007	2.01363e-005	2.02832e-005
    92	1.46859e-007	2.01363e-005	2.02832e-005
    93	1.46864e-007	2.01363e-005	2.02832e-005
    94	1.46869e-007	2.01363e-005	2.02832e-005
    95	1.46874e-007	2.01363e-005	2.02832e-005
    96	1.46879e-007	2.01363e-005	2.02832e-005
    97	1.46884e-007	2.01363e-005	2.02832e-005
    98	1.46889e-007	2.01363e-005	2.02832e-005
    99	1.46894e-007	2.01363e-005	2.02832e-005
   100	1.46899e-007	2.01363e-005	2.02832e-005
   101	1.46904e-007	2.01363e-005	2.02832e-005

Measurement: tr2
  step	tr2	FROM	TO
     1	4.44971e-007	6.13959e-005	6.18409e-005
     2	4.4484e-007	6.13958e-005	6.18407e-005
     3	4.44711e-007	6.13958e-005	6.18405e-005
     4	4.44583e-007	6.13957e-005	6.18403e-005
     5	4.44457e-007	6.13957e-005	6.18401e-005
     6	4.44331e-007	6.13956e-005	6.18399e-005
     7	4.44202e-007	6.13955e-005	6.18397e-005
     8	4.44068e-007	6.13955e-005	6.18396e-005
     9	4.43927e-007	6.13954e-005	6.18394e-005
    10	4.43766e-007	6.13954e-005	6.18391e-005
    11	4.43559e-007	6.13953e-005	6.18389e-005
    12	4.43422e-007	6.13953e-005	6.18387e-005
    13	4.434e-007	6.13952e-005	6.18386e-005
    14	4.43398e-007	6.13952e-005	6.18386e-005
    15	4.43417e-007	6.13951e-005	6.18385e-005
    16	4.43459e-007	6.13951e-005	6.18385e-005
    17	4.43592e-007	6.1395e-005	6.18386e-005
    18	4.4385e-007	6.13949e-005	6.18388e-005
    19	4.44063e-007	6.13949e-005	6.1839e-005
    20	4.44268e-007	6.13949e-005	6.18391e-005
    21	4.4443e-007	6.13948e-005	6.18392e-005
    22	4.44677e-007	6.13948e-005	6.18394e-005
    23	4.44971e-007	6.13947e-005	6.18397e-005
    24	4.4527e-007	6.13946e-005	6.18399e-005
    25	4.45621e-007	6.13946e-005	6.18402e-005
    26	4.4603e-007	6.13946e-005	6.18406e-005
    27	4.40708e-007	6.13942e-005	6.18349e-005
    28	4.39867e-007	6.13941e-005	6.1834e-005
    29	4.39243e-007	6.13941e-005	6.18333e-005
    30	4.38803e-007	6.1394e-005	6.18328e-005
    31	4.38522e-007	6.13939e-005	6.18324e-005
    32	4.38385e-007	6.13939e-005	6.18322e-005
    33	4.38383e-007	6.13938e-005	6.18322e-005
    34	4.38407e-007	6.13937e-005	6.18322e-005
    35	4.38665e-007	6.13937e-005	6.18324e-005
    36	4.39134e-007	6.13936e-005	6.18328e-005
    37	4.39667e-007	6.13936e-005	6.18333e-005
    38	4.40359e-007	6.13936e-005	6.18339e-005
    39	4.41229e-007	6.13935e-005	6.18348e-005
    40	4.42059e-007	6.13936e-005	6.18356e-005
    41	4.43539e-007	6.13935e-005	6.18371e-005
    42	4.45387e-007	6.13935e-005	6.18389e-005
    43	4.47599e-007	6.13935e-005	6.18411e-005
    44	4.46332e-007	6.13935e-005	6.18398e-005
    45	4.41506e-007	6.13936e-005	6.18351e-005
    46	4.3864e-007	6.13938e-005	6.18324e-005
    47	4.35351e-007	6.13934e-005	6.18287e-005
    48	4.31719e-007	6.1393e-005	6.18247e-005
    49	4.30749e-007	6.1393e-005	6.18238e-005
    50	4.32554e-007	6.13928e-005	6.18254e-005
    51	4.35716e-007	6.13927e-005	6.18284e-005
    52	4.32892e-007	6.13926e-005	6.18255e-005
    53	4.34929e-007	6.13925e-005	6.18274e-005
    54	4.35461e-007	6.13925e-005	6.18279e-005
    55	4.36212e-007	6.13924e-005	6.18287e-005
    56	4.37269e-007	6.13924e-005	6.18297e-005
    57	4.39119e-007	6.13924e-005	6.18315e-005
    58	4.41588e-007	6.13925e-005	6.1834e-005
    59	4.45658e-007	6.13927e-005	6.18383e-005
    60	4.33356e-007	6.13928e-005	6.18262e-005
    61	4.33205e-007	6.13921e-005	6.18253e-005
    62	4.33937e-007	6.1392e-005	6.1826e-005
    63	4.35017e-007	6.1392e-005	6.1827e-005
    64	4.36695e-007	6.1392e-005	6.18287e-005
    65	4.3581e-007	6.13919e-005	6.18277e-005
    66	4.30512e-007	6.13925e-005	6.1823e-005
    67	4.30536e-007	6.13924e-005	6.1823e-005
    68	4.30579e-007	6.13924e-005	6.1823e-005
    69	4.30404e-007	6.13923e-005	6.18227e-005
    70	4.30389e-007	6.13923e-005	6.18227e-005
    71	4.30414e-007	6.13923e-005	6.18227e-005
    72	4.30153e-007	6.13922e-005	6.18223e-005
    73	4.30164e-007	6.13922e-005	6.18223e-005
    74	4.30354e-007	6.13921e-005	6.18224e-005
    75	4.30795e-007	6.1392e-005	6.18228e-005
    76	4.31021e-007	6.13919e-005	6.1823e-005
    77	4.31534e-007	6.13919e-005	6.18234e-005
    78	4.32786e-007	6.13919e-005	6.18246e-005
    79	4.35314e-007	6.1392e-005	6.18273e-005
    80	4.31213e-007	6.13922e-005	6.18234e-005
    81	4.43248e-007	6.13918e-005	6.1835e-005
    82	4.35374e-007	6.1392e-005	6.18273e-005
    83	4.30434e-007	6.13921e-005	6.18225e-005
    84	4.32537e-007	6.1392e-005	6.18245e-005
    85	4.35275e-007	6.13918e-005	6.18271e-005
    86	4.37972e-007	6.13914e-005	6.18293e-005
    87	4.30234e-007	6.13918e-005	6.18221e-005
    88	4.304e-007	6.13918e-005	6.18222e-005
    89	4.34198e-007	6.1391e-005	6.18252e-005
    90	4.30056e-007	6.13912e-005	6.18213e-005
    91	4.3036e-007	6.13912e-005	6.18216e-005
    92	4.30519e-007	6.13911e-005	6.18216e-005
    93	4.30752e-007	6.13911e-005	6.18218e-005
    94	4.31065e-007	6.1391e-005	6.18221e-005
    95	4.31296e-007	6.1391e-005	6.18223e-005
    96	4.3234e-007	6.13903e-005	6.18226e-005
    97	4.32882e-007	6.13902e-005	6.18231e-005
    98	4.31449e-007	6.13902e-005	6.18216e-005
    99	4.32352e-007	6.13907e-005	6.18231e-005
   100	4.3793e-007	6.13901e-005	6.1828e-005
   101	4.36881e-007	6.139e-005	6.18269e-005

Measurement: vth
  step	v(n004)	at
     1	2.66435	2.01953e-005
     2	2.66445	2.01953e-005
     3	2.66454	2.01953e-005
     4	2.66463	2.01953e-005
     5	2.66472	2.01953e-005
     6	2.66481	2.01953e-005
     7	2.6649	2.01953e-005
     8	2.66499	2.01953e-005
     9	2.66509	2.01953e-005
    10	2.66518	2.01953e-005
    11	2.66527	2.01953e-005
    12	2.66536	2.01953e-005
    13	2.66545	2.01953e-005
    14	2.66554	2.01953e-005
    15	2.66564	2.01953e-005
    16	2.66573	2.01953e-005
    17	2.66582	2.01953e-005
    18	2.66591	2.01953e-005
    19	2.666	2.01953e-005
    20	2.66609	2.01953e-005
    21	2.66618	2.01953e-005
    22	2.66628	2.01953e-005
    23	2.66637	2.01953e-005
    24	2.66646	2.01954e-005
    25	2.66655	2.01954e-005
    26	2.66664	2.01954e-005
    27	2.66673	2.01954e-005
    28	2.66682	2.01954e-005
    29	2.66691	2.01954e-005
    30	2.66701	2.01954e-005
    31	2.6671	2.01954e-005
    32	2.66719	2.01954e-005
    33	2.66728	2.01954e-005
    34	2.66737	2.01954e-005
    35	2.66746	2.01954e-005
    36	2.66755	2.01954e-005
    37	2.66765	2.01954e-005
    38	2.66774	2.01954e-005
    39	2.66783	2.01954e-005
    40	2.66792	2.01954e-005
    41	2.66801	2.01954e-005
    42	2.6681	2.01954e-005
    43	2.66819	2.01954e-005
    44	2.66829	2.01954e-005
    45	2.66838	2.01954e-005
    46	2.66847	2.01954e-005
    47	2.66856	2.01954e-005
    48	2.66865	2.01954e-005
    49	2.66874	2.01954e-005
    50	2.66883	2.01954e-005
    51	2.66893	2.01954e-005
    52	2.66902	2.01954e-005
    53	2.66911	2.01954e-005
    54	2.6692	2.01954e-005
    55	2.66929	2.01954e-005
    56	2.66938	2.01954e-005
    57	2.66947	2.01954e-005
    58	2.66957	2.01954e-005
    59	2.66966	2.01954e-005
    60	2.66975	2.01954e-005
    61	2.66984	2.01954e-005
    62	2.66993	2.01954e-005
    63	2.67002	2.01954e-005
    64	2.67011	2.01954e-005
    65	2.6702	2.01954e-005
    66	2.6703	2.01954e-005
    67	2.67039	2.01954e-005
    68	2.67048	2.01954e-005
    69	2.67057	2.01954e-005
    70	2.67066	2.01954e-005
    71	2.67075	2.01954e-005
    72	2.67084	2.01955e-005
    73	2.67094	2.01955e-005
    74	2.67103	2.01955e-005
    75	2.67112	2.01955e-005
    76	2.67121	2.01955e-005
    77	2.6713	2.01955e-005
    78	2.67139	2.01955e-005
    79	2.67148	2.01955e-005
    80	2.67157	2.01955e-005
    81	2.67167	2.01955e-005
    82	2.67176	2.01955e-005
    83	2.67185	2.01955e-005
    84	2.67194	2.01955e-005
    85	2.67203	2.01955e-005
    86	2.67212	2.01955e-005
    87	2.67221	2.01955e-005
    88	2.6723	2.01955e-005
    89	2.6724	2.01955e-005
    90	2.67249	2.01955e-005
    91	2.67258	2.01955e-005
    92	2.67267	2.01955e-005
    93	2.67276	2.01955e-005
    94	2.67285	2.01955e-005
    95	2.67294	2.01955e-005
    96	2.67303	2.01955e-005
    97	2.67313	2.01955e-005
    98	2.67322	2.01955e-005
    99	2.67331	2.01955e-005
   100	2.6734	2.01955e-005
   101	2.67349	2.01955e-005


Date: Tue Mar 22 14:31:21 2022
Total elapsed time: 1.334 seconds.

tnom = 27
temp = 27
method = modified trap
totiter = 2412
traniter = 2382
tranpoints = 1150
accept = 1114
rejected = 36
matrix size = 11
fillins = 0
solver = Normal
Matrix Compiler1: 674 bytes object code size  0.1/0.1/[0.1]
Matrix Compiler2: 847 bytes object code size  0.1/0.1/[0.1]

