Circuit: * C:\Users\user\Documents\LTspiceXVII\file\Montecarlo\monte_SiC.asc

Direct Newton iteration for .op point succeeded.
.step tol1=0
.step tol1=0.01
.step tol1=0.02
.step tol1=0.03
.step tol1=0.04
.step tol1=0.05
.step tol1=0.06
.step tol1=0.07
.step tol1=0.08
.step tol1=0.09
.step tol1=0.1
.step tol1=0.11
.step tol1=0.12
.step tol1=0.13
.step tol1=0.14
.step tol1=0.15
.step tol1=0.16
.step tol1=0.17
.step tol1=0.18
.step tol1=0.19
.step tol1=0.2
.step tol1=0.21
.step tol1=0.22
.step tol1=0.23
.step tol1=0.24
.step tol1=0.25
.step tol1=0.26
.step tol1=0.27
.step tol1=0.28
.step tol1=0.29
.step tol1=0.3
.step tol1=0.31
.step tol1=0.32
.step tol1=0.33
.step tol1=0.34
.step tol1=0.35
.step tol1=0.36
.step tol1=0.37
.step tol1=0.38
.step tol1=0.39
.step tol1=0.4
.step tol1=0.41
.step tol1=0.42
.step tol1=0.43
.step tol1=0.44
.step tol1=0.45
.step tol1=0.46
.step tol1=0.47
.step tol1=0.48
.step tol1=0.49
.step tol1=0.5
.step tol1=0.51
.step tol1=0.52
.step tol1=0.53
.step tol1=0.54
.step tol1=0.55
.step tol1=0.56
.step tol1=0.57
.step tol1=0.58
.step tol1=0.59
.step tol1=0.6
.step tol1=0.61
.step tol1=0.62
.step tol1=0.63
.step tol1=0.64
.step tol1=0.65
.step tol1=0.66
.step tol1=0.67
.step tol1=0.68
.step tol1=0.69
.step tol1=0.7
.step tol1=0.71
.step tol1=0.72
.step tol1=0.73
.step tol1=0.74
.step tol1=0.75
.step tol1=0.76
.step tol1=0.77
.step tol1=0.78
.step tol1=0.79
.step tol1=0.8
.step tol1=0.81
.step tol1=0.82
.step tol1=0.83
.step tol1=0.84
.step tol1=0.85
.step tol1=0.86
.step tol1=0.87
.step tol1=0.88
.step tol1=0.89
.step tol1=0.9
.step tol1=0.91
.step tol1=0.92
.step tol1=0.93
.step tol1=0.94
.step tol1=0.95
.step tol1=0.96
.step tol1=0.97
.step tol1=0.98
.step tol1=0.99
.step tol1=1


Measurement: imax
  step	MAX(-i(v1))	FROM	TO
     1	0.998033	0	0.0001
     2	0.998033	0	0.0001
     3	0.998033	0	0.0001
     4	0.998033	0	0.0001
     5	0.998033	0	0.0001
     6	0.998033	0	0.0001
     7	0.998033	0	0.0001
     8	0.998033	0	0.0001
     9	0.998033	0	0.0001
    10	0.998033	0	0.0001
    11	0.998033	0	0.0001
    12	0.998033	0	0.0001
    13	0.998033	0	0.0001
    14	0.998033	0	0.0001
    15	0.998033	0	0.0001
    16	0.998033	0	0.0001
    17	0.998033	0	0.0001
    18	0.998033	0	0.0001
    19	0.998033	0	0.0001
    20	0.998033	0	0.0001
    21	0.998033	0	0.0001
    22	0.998033	0	0.0001
    23	0.998033	0	0.0001
    24	0.998033	0	0.0001
    25	0.998033	0	0.0001
    26	0.998033	0	0.0001
    27	0.998033	0	0.0001
    28	0.998033	0	0.0001
    29	0.998033	0	0.0001
    30	0.998033	0	0.0001
    31	0.998033	0	0.0001
    32	0.998033	0	0.0001
    33	0.998033	0	0.0001
    34	0.998033	0	0.0001
    35	0.998033	0	0.0001
    36	0.998033	0	0.0001
    37	0.998033	0	0.0001
    38	0.998034	0	0.0001
    39	0.998035	0	0.0001
    40	0.998035	0	0.0001
    41	0.998035	0	0.0001
    42	0.998035	0	0.0001
    43	0.998035	0	0.0001
    44	0.998035	0	0.0001
    45	0.998035	0	0.0001
    46	0.998034	0	0.0001
    47	0.998035	0	0.0001
    48	0.998034	0	0.0001
    49	0.998034	0	0.0001
    50	0.998034	0	0.0001
    51	0.998034	0	0.0001
    52	0.998034	0	0.0001
    53	0.998035	0	0.0001
    54	0.998035	0	0.0001
    55	0.998035	0	0.0001
    56	0.998034	0	0.0001
    57	0.998033	0	0.0001
    58	0.998033	0	0.0001
    59	0.998033	0	0.0001
    60	0.998033	0	0.0001
    61	0.998033	0	0.0001
    62	0.998033	0	0.0001
    63	0.998033	0	0.0001
    64	0.998033	0	0.0001
    65	0.998033	0	0.0001
    66	0.998033	0	0.0001
    67	0.998033	0	0.0001
    68	0.998033	0	0.0001
    69	0.998033	0	0.0001
    70	0.998033	0	0.0001
    71	0.998033	0	0.0001
    72	0.998033	0	0.0001
    73	0.998033	0	0.0001
    74	0.998033	0	0.0001
    75	0.998033	0	0.0001
    76	0.998033	0	0.0001
    77	0.998033	0	0.0001
    78	0.998033	0	0.0001
    79	0.998033	0	0.0001
    80	0.998033	0	0.0001
    81	0.998033	0	0.0001
    82	0.998033	0	0.0001
    83	0.998033	0	0.0001
    84	0.998033	0	0.0001
    85	0.998033	0	0.0001
    86	0.998033	0	0.0001
    87	0.998033	0	0.0001
    88	0.998033	0	0.0001
    89	0.998033	0	0.0001
    90	0.998033	0	0.0001
    91	0.998033	0	0.0001
    92	0.998033	0	0.0001
    93	0.998033	0	0.0001
    94	0.998033	0	0.0001
    95	0.998033	0	0.0001
    96	0.998033	0	0.0001
    97	0.998033	0	0.0001
    98	0.998033	0	0.0001
    99	0.998033	0	0.0001
   100	0.998033	0	0.0001
   101	0.998033	0	0.0001

Measurement: tr1
  step	tr1	FROM	TO
     1	1.46403e-007	2.01363e-005	2.02827e-005
     2	1.46407e-007	2.01363e-005	2.02827e-005
     3	1.46411e-007	2.01363e-005	2.02827e-005
     4	1.46414e-007	2.01363e-005	2.02827e-005
     5	1.46418e-007	2.01363e-005	2.02827e-005
     6	1.46421e-007	2.01363e-005	2.02827e-005
     7	1.46425e-007	2.01363e-005	2.02827e-005
     8	1.46428e-007	2.01363e-005	2.02827e-005
     9	1.46432e-007	2.01363e-005	2.02827e-005
    10	1.46435e-007	2.01363e-005	2.02827e-005
    11	1.46439e-007	2.01363e-005	2.02827e-005
    12	1.46442e-007	2.01363e-005	2.02827e-005
    13	1.46445e-007	2.01363e-005	2.02827e-005
    14	1.46449e-007	2.01363e-005	2.02827e-005
    15	1.46452e-007	2.01363e-005	2.02827e-005
    16	1.46455e-007	2.01363e-005	2.02828e-005
    17	1.46459e-007	2.01363e-005	2.02828e-005
    18	1.46462e-007	2.01363e-005	2.02828e-005
    19	1.46465e-007	2.01363e-005	2.02828e-005
    20	1.46468e-007	2.01363e-005	2.02828e-005
    21	1.46471e-007	2.01363e-005	2.02828e-005
    22	1.46474e-007	2.01363e-005	2.02828e-005
    23	1.46477e-007	2.01363e-005	2.02828e-005
    24	1.4648e-007	2.01363e-005	2.02828e-005
    25	1.46483e-007	2.01363e-005	2.02828e-005
    26	1.46486e-007	2.01363e-005	2.02828e-005
    27	1.46489e-007	2.01363e-005	2.02828e-005
    28	1.46492e-007	2.01363e-005	2.02828e-005
    29	1.46495e-007	2.01363e-005	2.02828e-005
    30	1.46498e-007	2.01363e-005	2.02828e-005
    31	1.46501e-007	2.01363e-005	2.02828e-005
    32	1.46504e-007	2.01363e-005	2.02828e-005
    33	1.46506e-007	2.01363e-005	2.02828e-005
    34	1.46509e-007	2.01363e-005	2.02828e-005
    35	1.46512e-007	2.01363e-005	2.02828e-005
    36	1.46515e-007	2.01363e-005	2.02828e-005
    37	1.46517e-007	2.01363e-005	2.02828e-005
    38	1.4652e-007	2.01363e-005	2.02828e-005
    39	1.46523e-007	2.01363e-005	2.02828e-005
    40	1.46526e-007	2.01363e-005	2.02828e-005
    41	1.46528e-007	2.01363e-005	2.02828e-005
    42	1.46531e-007	2.01363e-005	2.02829e-005
    43	1.46534e-007	2.01363e-005	2.02829e-005
    44	1.46536e-007	2.01363e-005	2.02829e-005
    45	1.46539e-007	2.01363e-005	2.02829e-005
    46	1.46541e-007	2.01363e-005	2.02829e-005
    47	1.46544e-007	2.01363e-005	2.02829e-005
    48	1.46546e-007	2.01363e-005	2.02829e-005
    49	1.46548e-007	2.01363e-005	2.02829e-005
    50	1.4655e-007	2.01363e-005	2.02829e-005
    51	1.46553e-007	2.01363e-005	2.02829e-005
    52	1.46555e-007	2.01363e-005	2.02829e-005
    53	1.46558e-007	2.01363e-005	2.02829e-005
    54	1.4656e-007	2.01363e-005	2.02829e-005
    55	1.46563e-007	2.01363e-005	2.02829e-005
    56	1.46565e-007	2.01363e-005	2.02829e-005
    57	1.46567e-007	2.01363e-005	2.02829e-005
    58	1.46569e-007	2.01363e-005	2.02829e-005
    59	1.46571e-007	2.01363e-005	2.02829e-005
    60	1.46574e-007	2.01363e-005	2.02829e-005
    61	1.46576e-007	2.01363e-005	2.02829e-005
    62	1.46578e-007	2.01363e-005	2.02829e-005
    63	1.4658e-007	2.01363e-005	2.02829e-005
    64	1.46582e-007	2.01363e-005	2.02829e-005
    65	1.46584e-007	2.01363e-005	2.02829e-005
    66	1.46587e-007	2.01363e-005	2.02829e-005
    67	1.46589e-007	2.01363e-005	2.02829e-005
    68	1.46591e-007	2.01363e-005	2.02829e-005
    69	1.46593e-007	2.01363e-005	2.02829e-005
    70	1.46595e-007	2.01363e-005	2.02829e-005
    71	1.46597e-007	2.01363e-005	2.02829e-005
    72	1.46599e-007	2.01363e-005	2.02829e-005
    73	1.46601e-007	2.01363e-005	2.02829e-005
    74	1.46603e-007	2.01363e-005	2.02829e-005
    75	1.46605e-007	2.01363e-005	2.0283e-005
    76	1.46607e-007	2.01363e-005	2.0283e-005
    77	1.46609e-007	2.01363e-005	2.0283e-005
    78	1.46611e-007	2.01363e-005	2.0283e-005
    79	1.46613e-007	2.01363e-005	2.0283e-005
    80	1.46614e-007	2.01363e-005	2.0283e-005
    81	1.46616e-007	2.01364e-005	2.0283e-005
    82	1.46618e-007	2.01364e-005	2.0283e-005
    83	1.4662e-007	2.01364e-005	2.0283e-005
    84	1.46622e-007	2.01364e-005	2.0283e-005
    85	1.46624e-007	2.01364e-005	2.0283e-005
    86	1.46625e-007	2.01364e-005	2.0283e-005
    87	1.46627e-007	2.01364e-005	2.0283e-005
    88	1.46629e-007	2.01364e-005	2.0283e-005
    89	1.46631e-007	2.01364e-005	2.0283e-005
    90	1.46633e-007	2.01364e-005	2.0283e-005
    91	1.46634e-007	2.01364e-005	2.0283e-005
    92	1.46636e-007	2.01364e-005	2.0283e-005
    93	1.46638e-007	2.01364e-005	2.0283e-005
    94	1.46639e-007	2.01364e-005	2.0283e-005
    95	1.46641e-007	2.01364e-005	2.0283e-005
    96	1.46643e-007	2.01364e-005	2.0283e-005
    97	1.46644e-007	2.01364e-005	2.0283e-005
    98	1.46646e-007	2.01364e-005	2.0283e-005
    99	1.46648e-007	2.01364e-005	2.0283e-005
   100	1.46649e-007	2.01364e-005	2.0283e-005
   101	1.46651e-007	2.01364e-005	2.0283e-005

Measurement: tr2
  step	tr2	FROM	TO
     1	4.44971e-007	6.13959e-005	6.18409e-005
     2	4.45074e-007	6.13959e-005	6.1841e-005
     3	4.45178e-007	6.13959e-005	6.18411e-005
     4	4.45282e-007	6.13959e-005	6.18412e-005
     5	4.45386e-007	6.13959e-005	6.18413e-005
     6	4.36453e-007	6.13958e-005	6.18323e-005
     7	4.37467e-007	6.13959e-005	6.18334e-005
     8	4.34493e-007	6.13957e-005	6.18302e-005
     9	4.35547e-007	6.13958e-005	6.18313e-005
    10	4.36374e-007	6.13958e-005	6.18322e-005
    11	4.41528e-007	6.13964e-005	6.18379e-005
    12	4.41534e-007	6.13964e-005	6.18379e-005
    13	4.41538e-007	6.13964e-005	6.18379e-005
    14	4.4154e-007	6.13964e-005	6.18379e-005
    15	4.41541e-007	6.13964e-005	6.18379e-005
    16	4.41541e-007	6.13964e-005	6.18379e-005
    17	4.41538e-007	6.13964e-005	6.18379e-005
    18	4.31496e-007	6.13956e-005	6.18271e-005
    19	4.3179e-007	6.13956e-005	6.18274e-005
    20	4.41078e-007	6.13966e-005	6.18377e-005
    21	4.41066e-007	6.13966e-005	6.18377e-005
    22	4.41054e-007	6.13966e-005	6.18377e-005
    23	4.41041e-007	6.13967e-005	6.18377e-005
    24	4.41027e-007	6.13967e-005	6.18377e-005
    25	4.41012e-007	6.13967e-005	6.18377e-005
    26	4.40999e-007	6.13967e-005	6.18377e-005
    27	4.40998e-007	6.13967e-005	6.18377e-005
    28	4.31378e-007	6.13958e-005	6.18271e-005
    29	4.32572e-007	6.13958e-005	6.18284e-005
    30	4.33855e-007	6.13958e-005	6.18297e-005
    31	4.34791e-007	6.13959e-005	6.18307e-005
    32	4.31396e-007	6.13958e-005	6.18271e-005
    33	4.31905e-007	6.13958e-005	6.18277e-005
    34	4.32855e-007	6.13958e-005	6.18286e-005
    35	4.33644e-007	6.13958e-005	6.18295e-005
    36	4.34311e-007	6.13958e-005	6.18301e-005
    37	4.34883e-007	6.13959e-005	6.18307e-005
    38	4.42092e-007	6.13968e-005	6.18389e-005
    39	4.36789e-007	6.13967e-005	6.18335e-005
    40	4.36265e-007	6.13966e-005	6.18329e-005
    41	4.38665e-007	6.13964e-005	6.18351e-005
    42	4.4228e-007	6.13966e-005	6.18389e-005
    43	4.38415e-007	6.13958e-005	6.18343e-005
    44	4.31826e-007	6.13966e-005	6.18284e-005
    45	4.35643e-007	6.13961e-005	6.18318e-005
    46	4.31452e-007	6.13962e-005	6.18276e-005
    47	4.40194e-007	6.13966e-005	6.18368e-005
    48	4.37847e-007	6.13961e-005	6.1834e-005
    49	4.3161e-007	6.13961e-005	6.18277e-005
    50	4.39782e-007	6.13964e-005	6.18362e-005
    51	4.40994e-007	6.13962e-005	6.18371e-005
    52	4.42937e-007	6.13963e-005	6.18392e-005
    53	4.33438e-007	6.13958e-005	6.18293e-005
    54	4.37785e-007	6.13962e-005	6.18339e-005
    55	4.42435e-007	6.13967e-005	6.18392e-005
    56	4.42319e-007	6.13964e-005	6.18387e-005
    57	4.40592e-007	6.13962e-005	6.18368e-005
    58	4.41064e-007	6.13962e-005	6.18372e-005
    59	4.41524e-007	6.13961e-005	6.18376e-005
    60	4.41976e-007	6.1396e-005	6.1838e-005
    61	4.42425e-007	6.13959e-005	6.18384e-005
    62	4.42979e-007	6.13959e-005	6.18389e-005
    63	4.43638e-007	6.13958e-005	6.18395e-005
    64	4.49588e-007	6.13958e-005	6.18454e-005
    65	4.50788e-007	6.13958e-005	6.18466e-005
    66	4.49267e-007	6.13957e-005	6.1845e-005
    67	4.48539e-007	6.13957e-005	6.18442e-005
    68	4.47833e-007	6.13957e-005	6.18435e-005
    69	4.42506e-007	6.13957e-005	6.18382e-005
    70	4.42002e-007	6.13957e-005	6.18377e-005
    71	4.41525e-007	6.13957e-005	6.18372e-005
    72	4.41075e-007	6.13957e-005	6.18367e-005
    73	4.40648e-007	6.13956e-005	6.18363e-005
    74	4.40244e-007	6.13956e-005	6.18359e-005
    75	4.43453e-007	6.1396e-005	6.18395e-005
    76	4.50703e-007	6.1396e-005	6.18467e-005
    77	4.49203e-007	6.13959e-005	6.18451e-005
    78	4.48654e-007	6.13959e-005	6.18446e-005
    79	4.48118e-007	6.13959e-005	6.1844e-005
    80	4.47597e-007	6.13959e-005	6.18435e-005
    81	4.4709e-007	6.13959e-005	6.18429e-005
    82	4.46599e-007	6.13958e-005	6.18424e-005
    83	4.4613e-007	6.13958e-005	6.1842e-005
    84	4.45679e-007	6.13958e-005	6.18415e-005
    85	4.45244e-007	6.13958e-005	6.1841e-005
    86	4.44825e-007	6.13958e-005	6.18406e-005
    87	4.44422e-007	6.13958e-005	6.18402e-005
    88	4.44034e-007	6.13958e-005	6.18398e-005
    89	4.43661e-007	6.13957e-005	6.18394e-005
    90	4.43303e-007	6.13957e-005	6.1839e-005
    91	4.42958e-007	6.13957e-005	6.18387e-005
    92	4.42626e-007	6.13957e-005	6.18383e-005
    93	4.42307e-007	6.13957e-005	6.1838e-005
    94	4.42e-007	6.13957e-005	6.18377e-005
    95	4.41705e-007	6.13957e-005	6.18374e-005
    96	4.41421e-007	6.13957e-005	6.18371e-005
    97	4.41147e-007	6.13957e-005	6.18368e-005
    98	4.40884e-007	6.13957e-005	6.18366e-005
    99	4.4063e-007	6.13957e-005	6.18363e-005
   100	4.40385e-007	6.13957e-005	6.18361e-005
   101	4.40149e-007	6.13957e-005	6.18358e-005

Measurement: vth
  step	v(n004)	at
     1	2.66435	2.01953e-005
     2	2.66437	2.01953e-005
     3	2.66438	2.01953e-005
     4	2.66439	2.01953e-005
     5	2.6644	2.01953e-005
     6	2.66442	2.01953e-005
     7	2.66443	2.01953e-005
     8	2.66444	2.01953e-005
     9	2.66445	2.01953e-005
    10	2.66446	2.01953e-005
    11	2.66447	2.01953e-005
    12	2.66449	2.01953e-005
    13	2.6645	2.01953e-005
    14	2.66451	2.01953e-005
    15	2.66452	2.01953e-005
    16	2.66453	2.01953e-005
    17	2.66454	2.01953e-005
    18	2.66455	2.01953e-005
    19	2.66457	2.01953e-005
    20	2.66458	2.01953e-005
    21	2.66459	2.01953e-005
    22	2.6646	2.01953e-005
    23	2.66461	2.01953e-005
    24	2.66462	2.01953e-005
    25	2.66463	2.01953e-005
    26	2.66464	2.01953e-005
    27	2.66465	2.01953e-005
    28	2.66466	2.01953e-005
    29	2.66467	2.01953e-005
    30	2.66468	2.01953e-005
    31	2.6647	2.01953e-005
    32	2.66471	2.01953e-005
    33	2.66472	2.01953e-005
    34	2.66473	2.01953e-005
    35	2.66474	2.01953e-005
    36	2.66475	2.01953e-005
    37	2.66476	2.01953e-005
    38	2.66477	2.01953e-005
    39	2.66478	2.01953e-005
    40	2.66479	2.01953e-005
    41	2.6648	2.01953e-005
    42	2.66481	2.01953e-005
    43	2.66482	2.01953e-005
    44	2.66483	2.01953e-005
    45	2.66484	2.01953e-005
    46	2.66485	2.01953e-005
    47	2.66486	2.01953e-005
    48	2.66487	2.01953e-005
    49	2.66488	2.01953e-005
    50	2.66489	2.01953e-005
    51	2.6649	2.01953e-005
    52	2.66491	2.01953e-005
    53	2.66492	2.01953e-005
    54	2.66493	2.01953e-005
    55	2.66494	2.01953e-005
    56	2.66495	2.01953e-005
    57	2.66495	2.01953e-005
    58	2.66496	2.01953e-005
    59	2.66497	2.01953e-005
    60	2.66498	2.01953e-005
    61	2.66499	2.01953e-005
    62	2.665	2.01953e-005
    63	2.66501	2.01953e-005
    64	2.66502	2.01953e-005
    65	2.66503	2.01953e-005
    66	2.66504	2.01953e-005
    67	2.66505	2.01953e-005
    68	2.66506	2.01953e-005
    69	2.66507	2.01953e-005
    70	2.66507	2.01953e-005
    71	2.66508	2.01953e-005
    72	2.66509	2.01953e-005
    73	2.6651	2.01953e-005
    74	2.66511	2.01953e-005
    75	2.66512	2.01953e-005
    76	2.66513	2.01953e-005
    77	2.66514	2.01953e-005
    78	2.66515	2.01953e-005
    79	2.66515	2.01953e-005
    80	2.66516	2.01953e-005
    81	2.66517	2.01953e-005
    82	2.66518	2.01953e-005
    83	2.66519	2.01953e-005
    84	2.6652	2.01953e-005
    85	2.66521	2.01953e-005
    86	2.66521	2.01953e-005
    87	2.66522	2.01953e-005
    88	2.66523	2.01953e-005
    89	2.66524	2.01953e-005
    90	2.66525	2.01953e-005
    91	2.66526	2.01953e-005
    92	2.66527	2.01953e-005
    93	2.66527	2.01953e-005
    94	2.66528	2.01953e-005
    95	2.66529	2.01953e-005
    96	2.6653	2.01953e-005
    97	2.66531	2.01953e-005
    98	2.66531	2.01953e-005
    99	2.66532	2.01953e-005
   100	2.66533	2.01953e-005
   101	2.66534	2.01953e-005


Date: Tue Mar 22 14:30:01 2022
Total elapsed time: 1.156 seconds.

tnom = 27
temp = 27
method = modified trap
totiter = 2760
traniter = 2731
tranpoints = 1153
accept = 1116
rejected = 37
matrix size = 11
fillins = 0
solver = Normal
Matrix Compiler1: 674 bytes object code size  0.1/0.1/[0.0]
Matrix Compiler2:      68 opcodes  0.1/[0.1]/0.6

