Circuit: * C:\Users\user\Documents\LTspiceXVII\file\Montecarlo\monte_SiC.asc

Direct Newton iteration for .op point succeeded.
.step tol1=0
.step tol1=0.01
.step tol1=0.02
.step tol1=0.03
.step tol1=0.04
.step tol1=0.05
.step tol1=0.06
.step tol1=0.07
.step tol1=0.08
.step tol1=0.09
.step tol1=0.1
.step tol1=0.11
.step tol1=0.12
.step tol1=0.13
.step tol1=0.14
.step tol1=0.15
.step tol1=0.16
.step tol1=0.17
.step tol1=0.18
.step tol1=0.19
.step tol1=0.2
.step tol1=0.21
.step tol1=0.22
.step tol1=0.23
.step tol1=0.24
.step tol1=0.25
.step tol1=0.26
.step tol1=0.27
.step tol1=0.28
.step tol1=0.29
.step tol1=0.3
.step tol1=0.31
.step tol1=0.32
.step tol1=0.33
.step tol1=0.34
.step tol1=0.35
.step tol1=0.36
.step tol1=0.37
.step tol1=0.38
.step tol1=0.39
.step tol1=0.4
.step tol1=0.41
.step tol1=0.42
.step tol1=0.43
.step tol1=0.44
.step tol1=0.45
.step tol1=0.46
.step tol1=0.47
.step tol1=0.48
.step tol1=0.49
.step tol1=0.5
.step tol1=0.51
.step tol1=0.52
.step tol1=0.53
.step tol1=0.54
.step tol1=0.55
.step tol1=0.56
.step tol1=0.57
.step tol1=0.58
.step tol1=0.59
.step tol1=0.6
.step tol1=0.61
.step tol1=0.62
.step tol1=0.63
.step tol1=0.64
.step tol1=0.65
.step tol1=0.66
.step tol1=0.67
.step tol1=0.68
.step tol1=0.69
.step tol1=0.7
.step tol1=0.71
.step tol1=0.72
.step tol1=0.73
.step tol1=0.74
.step tol1=0.75
.step tol1=0.76
.step tol1=0.77
.step tol1=0.78
.step tol1=0.79
.step tol1=0.8
.step tol1=0.81
.step tol1=0.82
.step tol1=0.83
.step tol1=0.84
.step tol1=0.85
.step tol1=0.86
.step tol1=0.87
.step tol1=0.88
.step tol1=0.89
.step tol1=0.9
.step tol1=0.91
.step tol1=0.92
.step tol1=0.93
.step tol1=0.94
.step tol1=0.95
.step tol1=0.96
.step tol1=0.97
.step tol1=0.98
.step tol1=0.99
.step tol1=1


Measurement: imax
  step	MAX(-i(v1))	FROM	TO
     1	9.80646	0	0.0001
     2	9.80646	0	0.0001
     3	9.80646	0	0.0001
     4	9.80646	0	0.0001
     5	9.80646	0	0.0001
     6	9.80646	0	0.0001
     7	9.80646	0	0.0001
     8	9.80646	0	0.0001
     9	9.80646	0	0.0001
    10	9.80646	0	0.0001
    11	9.80646	0	0.0001
    12	9.80646	0	0.0001
    13	9.80647	0	0.0001
    14	9.80647	0	0.0001
    15	9.80647	0	0.0001
    16	9.80647	0	0.0001
    17	9.80647	0	0.0001
    18	9.80647	0	0.0001
    19	9.80647	0	0.0001
    20	9.80647	0	0.0001
    21	9.80647	0	0.0001
    22	9.80647	0	0.0001
    23	9.80647	0	0.0001
    24	9.80647	0	0.0001
    25	9.80647	0	0.0001
    26	9.80647	0	0.0001
    27	9.80647	0	0.0001
    28	9.80647	0	0.0001
    29	9.80647	0	0.0001
    30	9.80647	0	0.0001
    31	9.80647	0	0.0001
    32	9.80647	0	0.0001
    33	9.80647	0	0.0001
    34	9.80647	0	0.0001
    35	9.80647	0	0.0001
    36	9.80647	0	0.0001
    37	9.80647	0	0.0001
    38	9.80647	0	0.0001
    39	9.80647	0	0.0001
    40	9.80647	0	0.0001
    41	9.80647	0	0.0001
    42	9.80647	0	0.0001
    43	9.80647	0	0.0001
    44	9.80647	0	0.0001
    45	9.80647	0	0.0001
    46	9.80647	0	0.0001
    47	9.80647	0	0.0001
    48	9.80647	0	0.0001
    49	9.80647	0	0.0001
    50	9.80647	0	0.0001
    51	9.80647	0	0.0001
    52	9.80647	0	0.0001
    53	9.80647	0	0.0001
    54	9.80647	0	0.0001
    55	9.80647	0	0.0001
    56	9.80647	0	0.0001
    57	9.80647	0	0.0001
    58	9.80647	0	0.0001
    59	9.80647	0	0.0001
    60	9.80647	0	0.0001
    61	9.80647	0	0.0001
    62	9.80647	0	0.0001
    63	9.80647	0	0.0001
    64	9.80647	0	0.0001
    65	9.80647	0	0.0001
    66	9.80647	0	0.0001
    67	9.80647	0	0.0001
    68	9.80647	0	0.0001
    69	9.80647	0	0.0001
    70	9.80647	0	0.0001
    71	9.80647	0	0.0001
    72	9.80647	0	0.0001
    73	9.80647	0	0.0001
    74	9.80647	0	0.0001
    75	9.80647	0	0.0001
    76	9.80647	0	0.0001
    77	9.80647	0	0.0001
    78	9.80647	0	0.0001
    79	9.80647	0	0.0001
    80	9.80643	0	0.0001
    81	9.80643	0	0.0001
    82	9.80643	0	0.0001
    83	9.80643	0	0.0001
    84	9.80643	0	0.0001
    85	9.80647	0	0.0001
    86	9.80647	0	0.0001
    87	9.80647	0	0.0001
    88	9.80643	0	0.0001
    89	9.80643	0	0.0001
    90	9.80647	0	0.0001
    91	9.80648	0	0.0001
    92	9.80648	0	0.0001
    93	9.80648	0	0.0001
    94	9.80648	0	0.0001
    95	9.80648	0	0.0001
    96	9.80648	0	0.0001
    97	9.80648	0	0.0001
    98	9.80648	0	0.0001
    99	9.80648	0	0.0001
   100	9.80648	0	0.0001
   101	9.80648	0	0.0001

Measurement: tr1
  step	tr1	FROM	TO
     1	1.8838e-007	2.01446e-005	2.0333e-005
     2	1.88384e-007	2.01446e-005	2.0333e-005
     3	1.88388e-007	2.01446e-005	2.0333e-005
     4	1.88392e-007	2.01446e-005	2.0333e-005
     5	1.88396e-007	2.01446e-005	2.0333e-005
     6	1.884e-007	2.01446e-005	2.03329e-005
     7	1.88404e-007	2.01445e-005	2.03329e-005
     8	1.88408e-007	2.01445e-005	2.03329e-005
     9	1.88411e-007	2.01445e-005	2.03329e-005
    10	1.88415e-007	2.01445e-005	2.03329e-005
    11	1.88419e-007	2.01445e-005	2.03329e-005
    12	1.88423e-007	2.01445e-005	2.03329e-005
    13	1.88427e-007	2.01445e-005	2.03329e-005
    14	1.88431e-007	2.01445e-005	2.03329e-005
    15	1.88434e-007	2.01445e-005	2.03329e-005
    16	1.88438e-007	2.01445e-005	2.03329e-005
    17	1.88442e-007	2.01445e-005	2.03329e-005
    18	1.88445e-007	2.01445e-005	2.03329e-005
    19	1.88449e-007	2.01445e-005	2.03329e-005
    20	1.88453e-007	2.01444e-005	2.03329e-005
    21	1.88456e-007	2.01444e-005	2.03329e-005
    22	1.8846e-007	2.01444e-005	2.03329e-005
    23	1.88463e-007	2.01444e-005	2.03329e-005
    24	1.88467e-007	2.01444e-005	2.03329e-005
    25	1.88471e-007	2.01444e-005	2.03329e-005
    26	1.88474e-007	2.01444e-005	2.03329e-005
    27	1.88503e-007	2.01444e-005	2.03329e-005
    28	1.88507e-007	2.01444e-005	2.03329e-005
    29	1.8851e-007	2.01444e-005	2.03329e-005
    30	1.88514e-007	2.01444e-005	2.03329e-005
    31	1.88517e-007	2.01444e-005	2.03329e-005
    32	1.8852e-007	2.01444e-005	2.03329e-005
    33	1.88524e-007	2.01444e-005	2.03329e-005
    34	1.88527e-007	2.01443e-005	2.03329e-005
    35	1.8853e-007	2.01443e-005	2.03329e-005
    36	1.88534e-007	2.01443e-005	2.03329e-005
    37	1.88537e-007	2.01443e-005	2.03329e-005
    38	1.8854e-007	2.01443e-005	2.03329e-005
    39	1.88543e-007	2.01443e-005	2.03329e-005
    40	1.88547e-007	2.01443e-005	2.03328e-005
    41	1.8855e-007	2.01443e-005	2.03328e-005
    42	1.88553e-007	2.01443e-005	2.03328e-005
    43	1.88556e-007	2.01443e-005	2.03328e-005
    44	1.88559e-007	2.01443e-005	2.03328e-005
    45	1.88562e-007	2.01443e-005	2.03328e-005
    46	1.88565e-007	2.01443e-005	2.03328e-005
    47	1.88568e-007	2.01443e-005	2.03328e-005
    48	1.88571e-007	2.01442e-005	2.03328e-005
    49	1.88574e-007	2.01442e-005	2.03328e-005
    50	1.88577e-007	2.01442e-005	2.03328e-005
    51	1.88579e-007	2.01442e-005	2.03328e-005
    52	1.88582e-007	2.01442e-005	2.03328e-005
    53	1.88585e-007	2.01442e-005	2.03328e-005
    54	1.88588e-007	2.01442e-005	2.03328e-005
    55	1.8859e-007	2.01442e-005	2.03328e-005
    56	1.88593e-007	2.01442e-005	2.03328e-005
    57	1.88596e-007	2.01442e-005	2.03328e-005
    58	1.88598e-007	2.01442e-005	2.03328e-005
    59	1.88601e-007	2.01442e-005	2.03328e-005
    60	1.88604e-007	2.01442e-005	2.03328e-005
    61	1.88606e-007	2.01441e-005	2.03328e-005
    62	1.88609e-007	2.01441e-005	2.03327e-005
    63	1.88611e-007	2.01441e-005	2.03327e-005
    64	1.88614e-007	2.01441e-005	2.03327e-005
    65	1.88616e-007	2.01441e-005	2.03327e-005
    66	1.88618e-007	2.01441e-005	2.03327e-005
    67	1.88621e-007	2.01441e-005	2.03327e-005
    68	1.88623e-007	2.01441e-005	2.03327e-005
    69	1.88625e-007	2.01441e-005	2.03327e-005
    70	1.88628e-007	2.01441e-005	2.03327e-005
    71	1.8863e-007	2.01441e-005	2.03327e-005
    72	1.88632e-007	2.01441e-005	2.03327e-005
    73	1.88634e-007	2.01441e-005	2.03327e-005
    74	1.88636e-007	2.01441e-005	2.03327e-005
    75	1.88638e-007	2.0144e-005	2.03327e-005
    76	1.8864e-007	2.0144e-005	2.03327e-005
    77	1.88642e-007	2.0144e-005	2.03327e-005
    78	1.88644e-007	2.0144e-005	2.03327e-005
    79	1.88646e-007	2.0144e-005	2.03327e-005
    80	1.88646e-007	2.0144e-005	2.03327e-005
    81	1.88648e-007	2.0144e-005	2.03326e-005
    82	1.8865e-007	2.0144e-005	2.03326e-005
    83	1.88652e-007	2.0144e-005	2.03326e-005
    84	1.88653e-007	2.0144e-005	2.03326e-005
    85	1.88657e-007	2.0144e-005	2.03326e-005
    86	1.88659e-007	2.0144e-005	2.03326e-005
    87	1.88661e-007	2.0144e-005	2.03326e-005
    88	1.8866e-007	2.01439e-005	2.03326e-005
    89	1.88662e-007	2.01439e-005	2.03326e-005
    90	1.88666e-007	2.01439e-005	2.03326e-005
    91	1.88668e-007	2.01439e-005	2.03326e-005
    92	1.8867e-007	2.01439e-005	2.03326e-005
    93	1.88671e-007	2.01439e-005	2.03326e-005
    94	1.88673e-007	2.01439e-005	2.03326e-005
    95	1.88676e-007	2.01439e-005	2.03326e-005
    96	1.88681e-007	2.01439e-005	2.03326e-005
    97	1.88692e-007	2.01439e-005	2.03326e-005
    98	1.88707e-007	2.01439e-005	2.03326e-005
    99	1.88723e-007	2.01439e-005	2.03326e-005
   100	1.88732e-007	2.01439e-005	2.03326e-005
   101	1.88735e-007	2.01439e-005	2.03326e-005

Measurement: tr2
  step	tr2	FROM	TO
     1	4.24943e-007	6.12087e-005	6.16336e-005
     2	4.24967e-007	6.12087e-005	6.16336e-005
     3	4.2499e-007	6.12087e-005	6.16336e-005
     4	4.25014e-007	6.12087e-005	6.16337e-005
     5	4.25037e-007	6.12087e-005	6.16337e-005
     6	4.25061e-007	6.12087e-005	6.16337e-005
     7	4.25084e-007	6.12087e-005	6.16338e-005
     8	4.25108e-007	6.12087e-005	6.16338e-005
     9	4.25131e-007	6.12087e-005	6.16338e-005
    10	4.25154e-007	6.12087e-005	6.16338e-005
    11	4.25178e-007	6.12087e-005	6.16339e-005
    12	4.25201e-007	6.12087e-005	6.16339e-005
    13	4.25225e-007	6.12087e-005	6.16339e-005
    14	4.25248e-007	6.12087e-005	6.16339e-005
    15	4.25272e-007	6.12087e-005	6.1634e-005
    16	4.25295e-007	6.12087e-005	6.1634e-005
    17	4.25319e-007	6.12087e-005	6.1634e-005
    18	4.25342e-007	6.12087e-005	6.1634e-005
    19	4.25366e-007	6.12087e-005	6.16341e-005
    20	4.25389e-007	6.12087e-005	6.16341e-005
    21	4.25412e-007	6.12087e-005	6.16341e-005
    22	4.25436e-007	6.12087e-005	6.16341e-005
    23	4.25459e-007	6.12087e-005	6.16342e-005
    24	4.25483e-007	6.12087e-005	6.16342e-005
    25	4.25506e-007	6.12087e-005	6.16342e-005
    26	4.25529e-007	6.12087e-005	6.16343e-005
    27	4.25553e-007	6.12087e-005	6.16343e-005
    28	4.25576e-007	6.12087e-005	6.16343e-005
    29	4.256e-007	6.12087e-005	6.16343e-005
    30	4.25623e-007	6.12087e-005	6.16344e-005
    31	4.25647e-007	6.12087e-005	6.16344e-005
    32	4.2567e-007	6.12087e-005	6.16344e-005
    33	4.25694e-007	6.12087e-005	6.16344e-005
    34	4.25717e-007	6.12087e-005	6.16345e-005
    35	4.2574e-007	6.12088e-005	6.16345e-005
    36	4.25764e-007	6.12088e-005	6.16345e-005
    37	4.25787e-007	6.12088e-005	6.16345e-005
    38	4.25811e-007	6.12088e-005	6.16346e-005
    39	4.25834e-007	6.12088e-005	6.16346e-005
    40	4.25858e-007	6.12088e-005	6.16346e-005
    41	4.25881e-007	6.12088e-005	6.16347e-005
    42	4.25905e-007	6.12088e-005	6.16347e-005
    43	4.25928e-007	6.12088e-005	6.16347e-005
    44	4.25951e-007	6.12088e-005	6.16347e-005
    45	4.25975e-007	6.12088e-005	6.16348e-005
    46	4.25998e-007	6.12088e-005	6.16348e-005
    47	4.26022e-007	6.12088e-005	6.16348e-005
    48	4.26045e-007	6.12088e-005	6.16348e-005
    49	4.26069e-007	6.12088e-005	6.16349e-005
    50	4.26092e-007	6.12088e-005	6.16349e-005
    51	4.26115e-007	6.12088e-005	6.16349e-005
    52	4.26139e-007	6.12088e-005	6.16349e-005
    53	4.26164e-007	6.12088e-005	6.1635e-005
    54	4.26187e-007	6.12088e-005	6.1635e-005
    55	4.26211e-007	6.12088e-005	6.1635e-005
    56	4.26234e-007	6.12088e-005	6.1635e-005
    57	4.26258e-007	6.12088e-005	6.16351e-005
    58	4.26281e-007	6.12088e-005	6.16351e-005
    59	4.26304e-007	6.12088e-005	6.16351e-005
    60	4.26328e-007	6.12088e-005	6.16352e-005
    61	4.26351e-007	6.12088e-005	6.16352e-005
    62	4.26375e-007	6.12088e-005	6.16352e-005
    63	4.26398e-007	6.12088e-005	6.16352e-005
    64	4.26422e-007	6.12088e-005	6.16353e-005
    65	4.26445e-007	6.12088e-005	6.16353e-005
    66	4.26469e-007	6.12088e-005	6.16353e-005
    67	4.26492e-007	6.12088e-005	6.16353e-005
    68	4.26516e-007	6.12088e-005	6.16354e-005
    69	4.26539e-007	6.12088e-005	6.16354e-005
    70	4.26563e-007	6.12089e-005	6.16354e-005
    71	4.26586e-007	6.12089e-005	6.16354e-005
    72	4.2661e-007	6.12089e-005	6.16355e-005
    73	4.26633e-007	6.12089e-005	6.16355e-005
    74	4.26657e-007	6.12089e-005	6.16355e-005
    75	4.2668e-007	6.12089e-005	6.16355e-005
    76	4.26704e-007	6.12089e-005	6.16356e-005
    77	4.26727e-007	6.12089e-005	6.16356e-005
    78	4.26751e-007	6.12089e-005	6.16356e-005
    79	4.26774e-007	6.12089e-005	6.16357e-005
    80	4.17194e-007	6.12093e-005	6.16265e-005
    81	4.27184e-007	6.12098e-005	6.1637e-005
    82	4.1514e-007	6.12093e-005	6.16244e-005
    83	4.27783e-007	6.12095e-005	6.16372e-005
    84	4.21044e-007	6.12092e-005	6.16303e-005
    85	4.19438e-007	6.12092e-005	6.16287e-005
    86	4.2127e-007	6.12093e-005	6.16305e-005
    87	4.19177e-007	6.12093e-005	6.16285e-005
    88	4.19707e-007	6.12098e-005	6.16296e-005
    89	4.16567e-007	6.12096e-005	6.16262e-005
    90	4.22817e-007	6.12094e-005	6.16322e-005
    91	4.27057e-007	6.12089e-005	6.1636e-005
    92	4.2708e-007	6.12089e-005	6.1636e-005
    93	4.27104e-007	6.12089e-005	6.1636e-005
    94	4.27127e-007	6.12089e-005	6.16361e-005
    95	4.27151e-007	6.12089e-005	6.16361e-005
    96	4.27175e-007	6.12089e-005	6.16361e-005
    97	4.27198e-007	6.12089e-005	6.16361e-005
    98	4.27222e-007	6.12089e-005	6.16362e-005
    99	4.27245e-007	6.12089e-005	6.16362e-005
   100	4.27269e-007	6.12089e-005	6.16362e-005
   101	4.27292e-007	6.12089e-005	6.16362e-005

Measurement: vth
  step	v(n004)	at
     1	1.88283	2.01041e-005
     2	1.88276	2.01041e-005
     3	1.88269	2.01041e-005
     4	1.88262	2.01041e-005
     5	1.88255	2.01041e-005
     6	1.88248	2.01041e-005
     7	1.88241	2.01041e-005
     8	1.88234	2.01041e-005
     9	1.88227	2.01041e-005
    10	1.8822	2.01041e-005
    11	1.88213	2.01041e-005
    12	1.88207	2.01041e-005
    13	1.882	2.01041e-005
    14	1.88193	2.01041e-005
    15	1.88186	2.01041e-005
    16	1.88179	2.01041e-005
    17	1.88173	2.01041e-005
    18	1.88166	2.01041e-005
    19	1.88159	2.01041e-005
    20	1.88153	2.01041e-005
    21	1.88146	2.01041e-005
    22	1.88139	2.01041e-005
    23	1.88133	2.01041e-005
    24	1.88126	2.01041e-005
    25	1.8812	2.01041e-005
    26	1.88113	2.01041e-005
    27	1.88107	2.01041e-005
    28	1.881	2.01041e-005
    29	1.88094	2.01041e-005
    30	1.88087	2.01041e-005
    31	1.88081	2.0104e-005
    32	1.88074	2.0104e-005
    33	1.88068	2.0104e-005
    34	1.88061	2.0104e-005
    35	1.88055	2.0104e-005
    36	1.88049	2.0104e-005
    37	1.88042	2.0104e-005
    38	1.88036	2.0104e-005
    39	1.8803	2.0104e-005
    40	1.88023	2.0104e-005
    41	1.88017	2.0104e-005
    42	1.88011	2.0104e-005
    43	1.88005	2.0104e-005
    44	1.87998	2.0104e-005
    45	1.87992	2.0104e-005
    46	1.87986	2.0104e-005
    47	1.8798	2.0104e-005
    48	1.87974	2.0104e-005
    49	1.87968	2.0104e-005
    50	1.87962	2.0104e-005
    51	1.87955	2.0104e-005
    52	1.87949	2.0104e-005
    53	1.87943	2.0104e-005
    54	1.87937	2.0104e-005
    55	1.87931	2.0104e-005
    56	1.87925	2.0104e-005
    57	1.87919	2.0104e-005
    58	1.87913	2.0104e-005
    59	1.87907	2.0104e-005
    60	1.87901	2.0104e-005
    61	1.87896	2.0104e-005
    62	1.8789	2.0104e-005
    63	1.87884	2.0104e-005
    64	1.87878	2.0104e-005
    65	1.87872	2.0104e-005
    66	1.87866	2.0104e-005
    67	1.8786	2.0104e-005
    68	1.87855	2.0104e-005
    69	1.87849	2.0104e-005
    70	1.87843	2.0104e-005
    71	1.87837	2.0104e-005
    72	1.87832	2.0104e-005
    73	1.87826	2.0104e-005
    74	1.8782	2.0104e-005
    75	1.87815	2.0104e-005
    76	1.87809	2.0104e-005
    77	1.87803	2.0104e-005
    78	1.87798	2.0104e-005
    79	1.87792	2.0104e-005
    80	1.87786	2.01039e-005
    81	1.87781	2.01039e-005
    82	1.87775	2.01039e-005
    83	1.8777	2.01039e-005
    84	1.87764	2.01039e-005
    85	1.87759	2.01039e-005
    86	1.87753	2.01039e-005
    87	1.87748	2.01039e-005
    88	1.87742	2.01039e-005
    89	1.87737	2.01039e-005
    90	1.87731	2.01039e-005
    91	1.87726	2.01039e-005
    92	1.8772	2.01039e-005
    93	1.87715	2.01039e-005
    94	1.8771	2.01039e-005
    95	1.87704	2.01039e-005
    96	1.87699	2.01039e-005
    97	1.87694	2.01039e-005
    98	1.87688	2.01039e-005
    99	1.87683	2.01039e-005
   100	1.87678	2.01039e-005
   101	1.87672	2.01039e-005


Date: Wed Mar 23 09:34:10 2022
Total elapsed time: 1.251 seconds.

tnom = 27
temp = 27
method = modified trap
totiter = 2369
traniter = 2339
tranpoints = 1110
accept = 1088
rejected = 22
matrix size = 11
fillins = 0
solver = Normal
Matrix Compiler1: 674 bytes object code size  0.1/0.1/[0.0]
Matrix Compiler2: 847 bytes object code size  0.1/0.1/[0.1]

