Circuit: * C:\Users\user\Documents\LTspiceXVII\file\Montecarlo\monte_SiC.asc

Direct Newton iteration for .op point succeeded.
.step tol1=0
.step tol1=0.01
.step tol1=0.02
.step tol1=0.03
.step tol1=0.04
.step tol1=0.05
.step tol1=0.06
.step tol1=0.07
.step tol1=0.08
.step tol1=0.09
.step tol1=0.1
.step tol1=0.11
.step tol1=0.12
.step tol1=0.13
.step tol1=0.14
.step tol1=0.15
.step tol1=0.16
.step tol1=0.17
.step tol1=0.18
.step tol1=0.19
.step tol1=0.2
.step tol1=0.21
.step tol1=0.22
.step tol1=0.23
.step tol1=0.24
.step tol1=0.25
.step tol1=0.26
.step tol1=0.27
.step tol1=0.28
.step tol1=0.29
.step tol1=0.3
.step tol1=0.31
.step tol1=0.32
.step tol1=0.33
.step tol1=0.34
.step tol1=0.35
.step tol1=0.36
.step tol1=0.37
.step tol1=0.38
.step tol1=0.39
.step tol1=0.4
.step tol1=0.41
.step tol1=0.42
.step tol1=0.43
.step tol1=0.44
.step tol1=0.45
.step tol1=0.46
.step tol1=0.47
.step tol1=0.48
.step tol1=0.49
.step tol1=0.5
.step tol1=0.51
.step tol1=0.52
.step tol1=0.53
.step tol1=0.54
.step tol1=0.55
.step tol1=0.56
.step tol1=0.57
.step tol1=0.58
.step tol1=0.59
.step tol1=0.6
.step tol1=0.61
.step tol1=0.62
.step tol1=0.63
.step tol1=0.64
.step tol1=0.65
.step tol1=0.66
.step tol1=0.67
.step tol1=0.68
.step tol1=0.69
.step tol1=0.7
.step tol1=0.71
.step tol1=0.72
.step tol1=0.73
.step tol1=0.74
.step tol1=0.75
.step tol1=0.76
.step tol1=0.77
.step tol1=0.78
.step tol1=0.79
.step tol1=0.8
.step tol1=0.81
.step tol1=0.82
.step tol1=0.83
.step tol1=0.84
.step tol1=0.85
.step tol1=0.86
.step tol1=0.87
.step tol1=0.88
.step tol1=0.89
.step tol1=0.9
.step tol1=0.91
.step tol1=0.92
.step tol1=0.93
.step tol1=0.94
.step tol1=0.95
.step tol1=0.96
.step tol1=0.97
.step tol1=0.98
.step tol1=0.99
.step tol1=1


Measurement: imax
  step	MAX(-i(v1))	FROM	TO
     1	0.998033	0	0.0001
     2	0.998035	0	0.0001
     3	0.998036	0	0.0001
     4	0.998038	0	0.0001
     5	0.998039	0	0.0001
     6	0.99804	0	0.0001
     7	0.998042	0	0.0001
     8	0.998044	0	0.0001
     9	0.998044	0	0.0001
    10	0.998045	0	0.0001
    11	0.998046	0	0.0001
    12	0.998049	0	0.0001
    13	0.998048	0	0.0001
    14	0.998051	0	0.0001
    15	0.998052	0	0.0001
    16	0.998053	0	0.0001
    17	0.998053	0	0.0001
    18	0.998053	0	0.0001
    19	0.998054	0	0.0001
    20	0.998055	0	0.0001
    21	0.998056	0	0.0001
    22	0.998057	0	0.0001
    23	0.998058	0	0.0001
    24	0.998058	0	0.0001
    25	0.998059	0	0.0001
    26	0.99806	0	0.0001
    27	0.998061	0	0.0001
    28	0.998062	0	0.0001
    29	0.998064	0	0.0001
    30	0.998065	0	0.0001
    31	0.998065	0	0.0001
    32	0.998066	0	0.0001
    33	0.998068	0	0.0001
    34	0.998067	0	0.0001
    35	0.99807	0	0.0001
    36	0.99807	0	0.0001
    37	0.99807	0	0.0001
    38	0.99807	0	0.0001
    39	0.99807	0	0.0001
    40	0.998071	0	0.0001
    41	0.998072	0	0.0001
    42	0.998072	0	0.0001
    43	0.998073	0	0.0001
    44	0.998074	0	0.0001
    45	0.998074	0	0.0001
    46	0.998075	0	0.0001
    47	0.998076	0	0.0001
    48	0.998076	0	0.0001
    49	0.998077	0	0.0001
    50	0.998078	0	0.0001
    51	0.998078	0	0.0001
    52	0.998079	0	0.0001
    53	0.998079	0	0.0001
    54	0.99808	0	0.0001
    55	0.99808	0	0.0001
    56	0.998081	0	0.0001
    57	0.998082	0	0.0001
    58	0.998082	0	0.0001
    59	0.998083	0	0.0001
    60	0.998083	0	0.0001
    61	0.998084	0	0.0001
    62	0.998084	0	0.0001
    63	0.998085	0	0.0001
    64	0.998085	0	0.0001
    65	0.998086	0	0.0001
    66	0.998086	0	0.0001
    67	0.998087	0	0.0001
    68	0.998087	0	0.0001
    69	0.998088	0	0.0001
    70	0.998088	0	0.0001
    71	0.998089	0	0.0001
    72	0.998089	0	0.0001
    73	0.998089	0	0.0001
    74	0.99809	0	0.0001
    75	0.99809	0	0.0001
    76	0.998091	0	0.0001
    77	0.998091	0	0.0001
    78	0.998092	0	0.0001
    79	0.998092	0	0.0001
    80	0.998093	0	0.0001
    81	0.998093	0	0.0001
    82	0.998093	0	0.0001
    83	0.998094	0	0.0001
    84	0.998094	0	0.0001
    85	0.998095	0	0.0001
    86	0.998095	0	0.0001
    87	0.998095	0	0.0001
    88	0.998096	0	0.0001
    89	0.998096	0	0.0001
    90	0.998097	0	0.0001
    91	0.998097	0	0.0001
    92	0.998097	0	0.0001
    93	0.998098	0	0.0001
    94	0.998098	0	0.0001
    95	0.998098	0	0.0001
    96	0.998099	0	0.0001
    97	0.998099	0	0.0001
    98	0.998099	0	0.0001
    99	0.9981	0	0.0001
   100	0.9981	0	0.0001
   101	0.9981	0	0.0001

Measurement: tr1
  step	tr1	FROM	TO
     1	1.46403e-007	2.01363e-005	2.02827e-005
     2	1.46302e-007	2.01363e-005	2.02826e-005
     3	1.46202e-007	2.01362e-005	2.02824e-005
     4	1.46103e-007	2.01362e-005	2.02823e-005
     5	1.46005e-007	2.01362e-005	2.02822e-005
     6	1.45909e-007	2.01362e-005	2.02821e-005
     7	1.45814e-007	2.01361e-005	2.0282e-005
     8	1.4572e-007	2.01361e-005	2.02818e-005
     9	1.45639e-007	2.01361e-005	2.02817e-005
    10	1.4556e-007	2.01361e-005	2.02816e-005
    11	1.45483e-007	2.0136e-005	2.02815e-005
    12	1.45407e-007	2.0136e-005	2.02814e-005
    13	1.45331e-007	2.0136e-005	2.02813e-005
    14	1.45258e-007	2.01359e-005	2.02812e-005
    15	1.45184e-007	2.01359e-005	2.02811e-005
    16	1.45111e-007	2.01359e-005	2.0281e-005
    17	1.45038e-007	2.01358e-005	2.02809e-005
    18	1.44966e-007	2.01358e-005	2.02808e-005
    19	1.44895e-007	2.01358e-005	2.02807e-005
    20	1.44825e-007	2.01357e-005	2.02806e-005
    21	1.44756e-007	2.01357e-005	2.02805e-005
    22	1.44688e-007	2.01357e-005	2.02804e-005
    23	1.4462e-007	2.01356e-005	2.02803e-005
    24	1.44553e-007	2.01356e-005	2.02802e-005
    25	1.445e-007	2.01356e-005	2.02801e-005
    26	1.44454e-007	2.01355e-005	2.028e-005
    27	1.44407e-007	2.01355e-005	2.02799e-005
    28	1.44361e-007	2.01355e-005	2.02798e-005
    29	1.44316e-007	2.01355e-005	2.02798e-005
    30	1.4427e-007	2.01354e-005	2.02797e-005
    31	1.44275e-007	2.01354e-005	2.02797e-005
    32	1.44232e-007	2.01354e-005	2.02796e-005
    33	1.4419e-007	2.01353e-005	2.02795e-005
    34	1.44147e-007	2.01353e-005	2.02795e-005
    35	1.44106e-007	2.01353e-005	2.02794e-005
    36	1.44063e-007	2.01353e-005	2.02793e-005
    37	1.44021e-007	2.01352e-005	2.02792e-005
    38	1.44295e-007	2.01347e-005	2.0279e-005
    39	1.44246e-007	2.01347e-005	2.02789e-005
    40	1.44197e-007	2.01347e-005	2.02789e-005
    41	1.44148e-007	2.01347e-005	2.02788e-005
    42	1.44099e-007	2.01347e-005	2.02788e-005
    43	1.44051e-007	2.01346e-005	2.02787e-005
    44	1.44003e-007	2.01346e-005	2.02786e-005
    45	1.43956e-007	2.01346e-005	2.02786e-005
    46	1.43908e-007	2.01346e-005	2.02785e-005
    47	1.43861e-007	2.01346e-005	2.02785e-005
    48	1.43814e-007	2.01346e-005	2.02784e-005
    49	1.43768e-007	2.01346e-005	2.02784e-005
    50	1.43721e-007	2.01346e-005	2.02783e-005
    51	1.43675e-007	2.01346e-005	2.02782e-005
    52	1.43631e-007	2.01346e-005	2.02782e-005
    53	1.43588e-007	2.01346e-005	2.02781e-005
    54	1.43545e-007	2.01345e-005	2.02781e-005
    55	1.43503e-007	2.01345e-005	2.0278e-005
    56	1.4346e-007	2.01345e-005	2.0278e-005
    57	1.43456e-007	2.01345e-005	2.0278e-005
    58	1.43416e-007	2.01345e-005	2.02779e-005
    59	1.43375e-007	2.01345e-005	2.02779e-005
    60	1.43335e-007	2.01345e-005	2.02778e-005
    61	1.43295e-007	2.01345e-005	2.02778e-005
    62	1.43255e-007	2.01345e-005	2.02777e-005
    63	1.43215e-007	2.01345e-005	2.02777e-005
    64	1.43176e-007	2.01345e-005	2.02776e-005
    65	1.43137e-007	2.01345e-005	2.02776e-005
    66	1.43098e-007	2.01344e-005	2.02775e-005
    67	1.43059e-007	2.01344e-005	2.02775e-005
    68	1.43021e-007	2.01344e-005	2.02775e-005
    69	1.42982e-007	2.01344e-005	2.02774e-005
    70	1.42946e-007	2.01344e-005	2.02774e-005
    71	1.4291e-007	2.01344e-005	2.02773e-005
    72	1.42875e-007	2.01344e-005	2.02773e-005
    73	1.4284e-007	2.01344e-005	2.02772e-005
    74	1.42805e-007	2.01344e-005	2.02772e-005
    75	1.4277e-007	2.01344e-005	2.02772e-005
    76	1.42735e-007	2.01344e-005	2.02771e-005
    77	1.42701e-007	2.01344e-005	2.02771e-005
    78	1.42666e-007	2.01344e-005	2.0277e-005
    79	1.42632e-007	2.01344e-005	2.0277e-005
    80	1.42615e-007	2.01343e-005	2.0277e-005
    81	1.426e-007	2.01343e-005	2.02769e-005
    82	1.42585e-007	2.01343e-005	2.02769e-005
    83	1.42571e-007	2.01343e-005	2.02769e-005
    84	1.42557e-007	2.01343e-005	2.02769e-005
    85	1.42547e-007	2.01343e-005	2.02769e-005
    86	1.42554e-007	2.01343e-005	2.02769e-005
    87	1.42561e-007	2.01343e-005	2.02769e-005
    88	1.42569e-007	2.01343e-005	2.02769e-005
    89	1.42576e-007	2.01343e-005	2.02769e-005
    90	1.42585e-007	2.01343e-005	2.02769e-005
    91	1.42593e-007	2.01343e-005	2.02769e-005
    92	1.42602e-007	2.01343e-005	2.02769e-005
    93	1.42611e-007	2.01343e-005	2.02769e-005
    94	1.42621e-007	2.01342e-005	2.02769e-005
    95	1.42631e-007	2.01342e-005	2.02769e-005
    96	1.42642e-007	2.01342e-005	2.02769e-005
    97	1.42652e-007	2.01342e-005	2.02769e-005
    98	1.42664e-007	2.01342e-005	2.02769e-005
    99	1.42675e-007	2.01342e-005	2.02769e-005
   100	1.42687e-007	2.01342e-005	2.02769e-005
   101	1.42699e-007	2.01342e-005	2.02769e-005

Measurement: tr2
  step	tr2	FROM	TO
     1	4.44971e-007	6.13959e-005	6.18409e-005
     2	4.35448e-007	6.13961e-005	6.18316e-005
     3	4.41864e-007	6.1397e-005	6.18388e-005
     4	4.32014e-007	6.1397e-005	6.1829e-005
     5	4.45026e-007	6.13978e-005	6.18428e-005
     6	4.36694e-007	6.13981e-005	6.18348e-005
     7	4.40202e-007	6.13988e-005	6.1839e-005
     8	4.31444e-007	6.13988e-005	6.18303e-005
     9	4.50548e-007	6.13994e-005	6.18499e-005
    10	4.43452e-007	6.13994e-005	6.18428e-005
    11	4.47219e-007	6.13993e-005	6.18465e-005
    12	4.3579e-007	6.14e-005	6.18357e-005
    13	4.35662e-007	6.14002e-005	6.18358e-005
    14	4.41819e-007	6.14001e-005	6.18419e-005
    15	4.38652e-007	6.14004e-005	6.18391e-005
    16	4.36381e-007	6.14008e-005	6.18372e-005
    17	4.32064e-007	6.14014e-005	6.18334e-005
    18	4.32406e-007	6.14019e-005	6.18343e-005
    19	4.44033e-007	6.1402e-005	6.1846e-005
    20	4.32084e-007	6.14026e-005	6.18347e-005
    21	4.32181e-007	6.14026e-005	6.18348e-005
    22	4.32112e-007	6.14029e-005	6.1835e-005
    23	4.33632e-007	6.14032e-005	6.18368e-005
    24	4.32316e-007	6.14033e-005	6.18357e-005
    25	4.36869e-007	6.14038e-005	6.18406e-005
    26	4.37015e-007	6.14043e-005	6.18413e-005
    27	4.37037e-007	6.14041e-005	6.18411e-005
    28	4.36883e-007	6.14043e-005	6.18412e-005
    29	4.36739e-007	6.1405e-005	6.18418e-005
    30	4.36796e-007	6.14053e-005	6.18421e-005
    31	4.43183e-007	6.1405e-005	6.18481e-005
    32	4.42381e-007	6.14057e-005	6.18481e-005
    33	4.36626e-007	6.14058e-005	6.18424e-005
    34	4.36677e-007	6.14064e-005	6.1843e-005
    35	4.33093e-007	6.14066e-005	6.18397e-005
    36	4.36679e-007	6.14064e-005	6.18431e-005
    37	4.34035e-007	6.1407e-005	6.1841e-005
    38	4.40936e-007	6.14067e-005	6.18477e-005
    39	4.38361e-007	6.14075e-005	6.18459e-005
    40	4.33489e-007	6.14076e-005	6.18411e-005
    41	4.40635e-007	6.14081e-005	6.18487e-005
    42	4.40505e-007	6.1408e-005	6.18485e-005
    43	4.3939e-007	6.14082e-005	6.18476e-005
    44	4.37025e-007	6.14085e-005	6.18456e-005
    45	4.37046e-007	6.14088e-005	6.18459e-005
    46	4.37125e-007	6.1409e-005	6.18462e-005
    47	4.37199e-007	6.14093e-005	6.18465e-005
    48	4.37281e-007	6.14095e-005	6.18467e-005
    49	4.37351e-007	6.14097e-005	6.1847e-005
    50	4.37418e-007	6.14099e-005	6.18473e-005
    51	4.37483e-007	6.14101e-005	6.18476e-005
    52	4.37539e-007	6.14104e-005	6.18479e-005
    53	4.37605e-007	6.14106e-005	6.18482e-005
    54	4.37617e-007	6.14108e-005	6.18484e-005
    55	4.37682e-007	6.1411e-005	6.18486e-005
    56	4.37749e-007	6.14112e-005	6.18489e-005
    57	4.37649e-007	6.14112e-005	6.18489e-005
    58	4.37911e-007	6.14114e-005	6.18493e-005
    59	4.4262e-007	6.14113e-005	6.1854e-005
    60	4.37189e-007	6.14116e-005	6.18488e-005
    61	4.43052e-007	6.14118e-005	6.18549e-005
    62	4.3923e-007	6.14119e-005	6.18511e-005
    63	4.39318e-007	6.1412e-005	6.18514e-005
    64	4.381e-007	6.14126e-005	6.18507e-005
    65	4.43566e-007	6.14127e-005	6.18562e-005
    66	4.39209e-007	6.14131e-005	6.18523e-005
    67	4.38191e-007	6.14132e-005	6.18514e-005
    68	4.38607e-007	6.14135e-005	6.18521e-005
    69	4.35269e-007	6.14138e-005	6.18491e-005
    70	4.38699e-007	6.14139e-005	6.18526e-005
    71	4.38565e-007	6.1414e-005	6.18526e-005
    72	4.41566e-007	6.14141e-005	6.18556e-005
    73	4.41756e-007	6.14142e-005	6.18559e-005
    74	4.40709e-007	6.14143e-005	6.1855e-005
    75	4.38651e-007	6.14146e-005	6.18533e-005
    76	4.42961e-007	6.14148e-005	6.18577e-005
    77	4.41022e-007	6.14146e-005	6.18557e-005
    78	4.35613e-007	6.14148e-005	6.18504e-005
    79	4.41794e-007	6.14152e-005	6.1857e-005
    80	4.39544e-007	6.14153e-005	6.18549e-005
    81	4.39333e-007	6.14154e-005	6.18547e-005
    82	4.39842e-007	6.14158e-005	6.18557e-005
    83	4.39659e-007	6.14158e-005	6.18555e-005
    84	4.39761e-007	6.1416e-005	6.18558e-005
    85	4.41485e-007	6.14159e-005	6.18574e-005
    86	4.42732e-007	6.14166e-005	6.18593e-005
    87	4.41202e-007	6.14162e-005	6.18574e-005
    88	4.39169e-007	6.14163e-005	6.18555e-005
    89	4.39291e-007	6.14165e-005	6.18558e-005
    90	4.41514e-007	6.14165e-005	6.1858e-005
    91	4.41385e-007	6.14171e-005	6.18585e-005
    92	4.43028e-007	6.14172e-005	6.18602e-005
    93	4.40861e-007	6.14174e-005	6.18583e-005
    94	4.40927e-007	6.14178e-005	6.18587e-005
    95	4.40516e-007	6.14172e-005	6.18577e-005
    96	4.43554e-007	6.14175e-005	6.1861e-005
    97	4.42657e-007	6.14177e-005	6.18604e-005
    98	4.41411e-007	6.14181e-005	6.18595e-005
    99	4.4675e-007	6.1418e-005	6.18648e-005
   100	4.43364e-007	6.14183e-005	6.18617e-005
   101	4.41266e-007	6.14185e-005	6.18597e-005

Measurement: vth
  step	v(n004)	at
     1	2.66435	2.01953e-005
     2	2.66318	2.01953e-005
     3	2.66202	2.01952e-005
     4	2.66087	2.01951e-005
     5	2.65975	2.01951e-005
     6	2.65864	2.0195e-005
     7	2.65754	2.0195e-005
     8	2.65646	2.0195e-005
     9	2.6554	2.01949e-005
    10	2.65435	2.01949e-005
    11	2.65332	2.01948e-005
    12	2.6523	2.01948e-005
    13	2.65129	2.01947e-005
    14	2.6503	2.01947e-005
    15	2.64932	2.01946e-005
    16	2.64835	2.01946e-005
    17	2.64739	2.01945e-005
    18	2.64645	2.01945e-005
    19	2.64552	2.01944e-005
    20	2.6446	2.01944e-005
    21	2.6437	2.01944e-005
    22	2.6428	2.01943e-005
    23	2.64192	2.01943e-005
    24	2.64104	2.01942e-005
    25	2.64018	2.01942e-005
    26	2.63933	2.01942e-005
    27	2.63849	2.01941e-005
    28	2.63766	2.01941e-005
    29	2.63684	2.0194e-005
    30	2.63602	2.0194e-005
    31	2.63522	2.0194e-005
    32	2.63442	2.01939e-005
    33	2.63364	2.01939e-005
    34	2.63286	2.01938e-005
    35	2.6321	2.01938e-005
    36	2.63134	2.01938e-005
    37	2.63059	2.01937e-005
    38	2.63006	2.01935e-005
    39	2.62932	2.01934e-005
    40	2.62859	2.01934e-005
    41	2.62786	2.01934e-005
    42	2.62715	2.01934e-005
    43	2.62644	2.01933e-005
    44	2.62573	2.01933e-005
    45	2.62504	2.01933e-005
    46	2.62435	2.01932e-005
    47	2.62367	2.01932e-005
    48	2.623	2.01932e-005
    49	2.62233	2.01931e-005
    50	2.62168	2.01931e-005
    51	2.62102	2.01931e-005
    52	2.62038	2.0193e-005
    53	2.61974	2.0193e-005
    54	2.6191	2.0193e-005
    55	2.61848	2.0193e-005
    56	2.61785	2.01929e-005
    57	2.61725	2.01929e-005
    58	2.61664	2.01928e-005
    59	2.61604	2.01928e-005
    60	2.61544	2.01928e-005
    61	2.61485	2.01928e-005
    62	2.61426	2.01927e-005
    63	2.61368	2.01927e-005
    64	2.61311	2.01927e-005
    65	2.61254	2.01927e-005
    66	2.61197	2.01926e-005
    67	2.61141	2.01926e-005
    68	2.61086	2.01926e-005
    69	2.61031	2.01926e-005
    70	2.60976	2.01925e-005
    71	2.60922	2.01925e-005
    72	2.60869	2.01925e-005
    73	2.60816	2.01924e-005
    74	2.60763	2.01924e-005
    75	2.60711	2.01924e-005
    76	2.60659	2.01924e-005
    77	2.60608	2.01923e-005
    78	2.60557	2.01923e-005
    79	2.60507	2.01923e-005
    80	2.60457	2.01923e-005
    81	2.60408	2.01922e-005
    82	2.60358	2.01922e-005
    83	2.6031	2.01922e-005
    84	2.60262	2.01922e-005
    85	2.60214	2.01922e-005
    86	2.60166	2.01921e-005
    87	2.60119	2.01921e-005
    88	2.60072	2.01921e-005
    89	2.60026	2.01921e-005
    90	2.5998	2.0192e-005
    91	2.59934	2.0192e-005
    92	2.59889	2.0192e-005
    93	2.59844	2.0192e-005
    94	2.598	2.01919e-005
    95	2.59755	2.01919e-005
    96	2.59712	2.01919e-005
    97	2.59668	2.01919e-005
    98	2.59625	2.01919e-005
    99	2.59582	2.01918e-005
   100	2.5954	2.01918e-005
   101	2.59497	2.01918e-005


Date: Tue Mar 22 14:30:37 2022
Total elapsed time: 1.149 seconds.

tnom = 27
temp = 27
method = modified trap
totiter = 2591
traniter = 2561
tranpoints = 1166
accept = 1130
rejected = 36
matrix size = 11
fillins = 0
solver = Normal
Matrix Compiler1:      38 opcodes  0.1/0.1/[0.0]
Matrix Compiler2: 847 bytes object code size  0.1/0.1/[0.1]

