Circuit: * C:\Users\user\Documents\LTspiceXVII\file\Montecarlo\monte_SiC.asc

Direct Newton iteration for .op point succeeded.
.step tol1=0
.step tol1=0.01
.step tol1=0.02
.step tol1=0.03
.step tol1=0.04
.step tol1=0.05
.step tol1=0.06
.step tol1=0.07
.step tol1=0.08
.step tol1=0.09
.step tol1=0.1
.step tol1=0.11
.step tol1=0.12
.step tol1=0.13
.step tol1=0.14
.step tol1=0.15
.step tol1=0.16
.step tol1=0.17
.step tol1=0.18
.step tol1=0.19
.step tol1=0.2
.step tol1=0.21
.step tol1=0.22
.step tol1=0.23
.step tol1=0.24
.step tol1=0.25
.step tol1=0.26
.step tol1=0.27
.step tol1=0.28
.step tol1=0.29
.step tol1=0.3
.step tol1=0.31
.step tol1=0.32
.step tol1=0.33
.step tol1=0.34
.step tol1=0.35
.step tol1=0.36
.step tol1=0.37
.step tol1=0.38
.step tol1=0.39
.step tol1=0.4
.step tol1=0.41
.step tol1=0.42
.step tol1=0.43
.step tol1=0.44
.step tol1=0.45
.step tol1=0.46
.step tol1=0.47
.step tol1=0.48
.step tol1=0.49
.step tol1=0.5
.step tol1=0.51
.step tol1=0.52
.step tol1=0.53
.step tol1=0.54
.step tol1=0.55
.step tol1=0.56
.step tol1=0.57
.step tol1=0.58
.step tol1=0.59
.step tol1=0.6
.step tol1=0.61
.step tol1=0.62
.step tol1=0.63
.step tol1=0.64
.step tol1=0.65
.step tol1=0.66
.step tol1=0.67
.step tol1=0.68
.step tol1=0.69
.step tol1=0.7
.step tol1=0.71
.step tol1=0.72
.step tol1=0.73
.step tol1=0.74
.step tol1=0.75
.step tol1=0.76
.step tol1=0.77
.step tol1=0.78
.step tol1=0.79
.step tol1=0.8
.step tol1=0.81
.step tol1=0.82
.step tol1=0.83
.step tol1=0.84
.step tol1=0.85
.step tol1=0.86
.step tol1=0.87
.step tol1=0.88
.step tol1=0.89
.step tol1=0.9
.step tol1=0.91
.step tol1=0.92
.step tol1=0.93
.step tol1=0.94
.step tol1=0.95
.step tol1=0.96
.step tol1=0.97
.step tol1=0.98
.step tol1=0.99
.step tol1=1


Measurement: imax
  step	MAX(-i(v1))	FROM	TO
     1	0.998033	0	0.0001
     2	0.998034	0	0.0001
     3	0.998034	0	0.0001
     4	0.998035	0	0.0001
     5	0.998034	0	0.0001
     6	0.998036	0	0.0001
     7	0.998035	0	0.0001
     8	0.998035	0	0.0001
     9	0.998034	0	0.0001
    10	0.998035	0	0.0001
    11	0.998034	0	0.0001
    12	0.998034	0	0.0001
    13	0.998034	0	0.0001
    14	0.998035	0	0.0001
    15	0.998034	0	0.0001
    16	0.998034	0	0.0001
    17	0.998035	0	0.0001
    18	0.998035	0	0.0001
    19	0.998035	0	0.0001
    20	0.998035	0	0.0001
    21	0.998035	0	0.0001
    22	0.998034	0	0.0001
    23	0.998034	0	0.0001
    24	0.998034	0	0.0001
    25	0.998034	0	0.0001
    26	0.998034	0	0.0001
    27	0.998034	0	0.0001
    28	0.998034	0	0.0001
    29	0.998035	0	0.0001
    30	0.998035	0	0.0001
    31	0.998035	0	0.0001
    32	0.998034	0	0.0001
    33	0.998034	0	0.0001
    34	0.998034	0	0.0001
    35	0.998034	0	0.0001
    36	0.998035	0	0.0001
    37	0.998036	0	0.0001
    38	0.998036	0	0.0001
    39	0.998035	0	0.0001
    40	0.998034	0	0.0001
    41	0.998034	0	0.0001
    42	0.998034	0	0.0001
    43	0.998036	0	0.0001
    44	0.998037	0	0.0001
    45	0.998034	0	0.0001
    46	0.998034	0	0.0001
    47	0.998034	0	0.0001
    48	0.998034	0	0.0001
    49	0.998034	0	0.0001
    50	0.998034	0	0.0001
    51	0.998034	0	0.0001
    52	0.998034	0	0.0001
    53	0.998034	0	0.0001
    54	0.998034	0	0.0001
    55	0.998035	0	0.0001
    56	0.998035	0	0.0001
    57	0.998034	0	0.0001
    58	0.998038	0	0.0001
    59	0.998034	0	0.0001
    60	0.998034	0	0.0001
    61	0.998036	0	0.0001
    62	0.998036	0	0.0001
    63	0.998035	0	0.0001
    64	0.998035	0	0.0001
    65	0.998034	0	0.0001
    66	0.998034	0	0.0001
    67	0.998034	0	0.0001
    68	0.998035	0	0.0001
    69	0.998035	0	0.0001
    70	0.998034	0	0.0001
    71	0.998034	0	0.0001
    72	0.998034	0	0.0001
    73	0.998034	0	0.0001
    74	0.998034	0	0.0001
    75	0.998034	0	0.0001
    76	0.998034	0	0.0001
    77	0.998034	0	0.0001
    78	0.998034	0	0.0001
    79	0.998034	0	0.0001
    80	0.998034	0	0.0001
    81	0.998034	0	0.0001
    82	0.998034	0	0.0001
    83	0.998036	0	0.0001
    84	0.998037	0	0.0001
    85	0.998037	0	0.0001
    86	0.998034	0	0.0001
    87	0.998034	0	0.0001
    88	0.998034	0	0.0001
    89	0.998034	0	0.0001
    90	0.998034	0	0.0001
    91	0.998037	0	0.0001
    92	0.998034	0	0.0001
    93	0.998034	0	0.0001
    94	0.998037	0	0.0001
    95	0.998034	0	0.0001
    96	0.998037	0	0.0001
    97	0.998034	0	0.0001
    98	0.998034	0	0.0001
    99	0.998034	0	0.0001
   100	0.998034	0	0.0001
   101	0.998034	0	0.0001

Measurement: tr1
  step	tr1	FROM	TO
     1	1.46403e-007	2.01363e-005	2.02827e-005
     2	1.44785e-007	2.0136e-005	2.02808e-005
     3	1.43293e-007	2.01357e-005	2.0279e-005
     4	1.41829e-007	2.01354e-005	2.02772e-005
     5	1.40382e-007	2.0135e-005	2.02754e-005
     6	1.38955e-007	2.01347e-005	2.02737e-005
     7	1.37545e-007	2.01344e-005	2.02719e-005
     8	1.36145e-007	2.01341e-005	2.02702e-005
     9	1.34752e-007	2.01338e-005	2.02686e-005
    10	1.3338e-007	2.01335e-005	2.02669e-005
    11	1.32078e-007	2.01332e-005	2.02653e-005
    12	1.31021e-007	2.0133e-005	2.0264e-005
    13	1.29746e-007	2.01327e-005	2.02625e-005
    14	1.28493e-007	2.01325e-005	2.0261e-005
    15	1.27256e-007	2.01323e-005	2.02596e-005
    16	1.26034e-007	2.01321e-005	2.02581e-005
    17	1.24827e-007	2.01319e-005	2.02567e-005
    18	1.23636e-007	2.01317e-005	2.02553e-005
    19	1.22459e-007	2.01315e-005	2.0254e-005
    20	1.21295e-007	2.01313e-005	2.02526e-005
    21	1.20148e-007	2.01311e-005	2.02513e-005
    22	1.19016e-007	2.01309e-005	2.025e-005
    23	1.17898e-007	2.01308e-005	2.02487e-005
    24	1.16794e-007	2.01306e-005	2.02474e-005
    25	1.15704e-007	2.01304e-005	2.02461e-005
    26	1.14636e-007	2.01302e-005	2.02449e-005
    27	1.13574e-007	2.01301e-005	2.02437e-005
    28	1.1253e-007	2.01299e-005	2.02425e-005
    29	1.11499e-007	2.01298e-005	2.02413e-005
    30	1.1058e-007	2.01296e-005	2.02402e-005
    31	1.09582e-007	2.01295e-005	2.0239e-005
    32	1.08602e-007	2.01293e-005	2.02379e-005
    33	1.07631e-007	2.01292e-005	2.02368e-005
    34	1.06676e-007	2.0129e-005	2.02357e-005
    35	1.07775e-007	2.01289e-005	2.02367e-005
    36	1.0634e-007	2.01292e-005	2.02355e-005
    37	1.06225e-007	2.01287e-005	2.02349e-005
    38	1.03095e-007	2.01295e-005	2.02326e-005
    39	1.01613e-007	2.01289e-005	2.02305e-005
    40	1.01285e-007	2.01293e-005	2.02306e-005
    41	9.98603e-008	2.01287e-005	2.02285e-005
    42	1.00767e-007	2.01287e-005	2.02295e-005
    43	9.86167e-008	2.0129e-005	2.02276e-005
    44	9.87738e-008	2.01283e-005	2.0227e-005
    45	9.83451e-008	2.01282e-005	2.02265e-005
    46	9.7217e-008	2.01278e-005	2.0225e-005
    47	9.52107e-008	2.01275e-005	2.02227e-005
    48	9.42741e-008	2.01277e-005	2.0222e-005
    49	9.37228e-008	2.01283e-005	2.0222e-005
    50	9.31182e-008	2.01281e-005	2.02212e-005
    51	9.31611e-008	2.01277e-005	2.02208e-005
    52	9.17062e-008	2.0128e-005	2.02197e-005
    53	9.06303e-008	2.01279e-005	2.02185e-005
    54	9.01754e-008	2.01274e-005	2.02176e-005
    55	8.88343e-008	2.0127e-005	2.02158e-005
    56	8.86231e-008	2.01274e-005	2.0216e-005
    57	8.74523e-008	2.01264e-005	2.02138e-005
    58	8.75781e-008	2.0127e-005	2.02146e-005
    59	8.70318e-008	2.01266e-005	2.02136e-005
    60	8.54368e-008	2.01274e-005	2.02128e-005
    61	8.55462e-008	2.01267e-005	2.02122e-005
    62	8.49192e-008	2.01265e-005	2.02114e-005
    63	8.32044e-008	2.01264e-005	2.02096e-005
    64	8.26211e-008	2.01262e-005	2.02088e-005
    65	8.3241e-008	2.0126e-005	2.02092e-005
    66	8.25655e-008	2.0126e-005	2.02085e-005
    67	8.18539e-008	2.0126e-005	2.02078e-005
    68	8.10536e-008	2.0126e-005	2.02071e-005
    69	8.04462e-008	2.01261e-005	2.02066e-005
    70	7.95367e-008	2.01262e-005	2.02058e-005
    71	7.84089e-008	2.01264e-005	2.02048e-005
    72	7.79683e-008	2.01265e-005	2.02045e-005
    73	7.76574e-008	2.01263e-005	2.0204e-005
    74	7.64565e-008	2.01262e-005	2.02026e-005
    75	7.59578e-008	2.0126e-005	2.0202e-005
    76	7.54839e-008	2.01258e-005	2.02013e-005
    77	7.61034e-008	2.01261e-005	2.02022e-005
    78	7.45643e-008	2.01261e-005	2.02007e-005
    79	7.37002e-008	2.0126e-005	2.01997e-005
    80	7.31844e-008	2.01258e-005	2.0199e-005
    81	7.30222e-008	2.01257e-005	2.01987e-005
    82	7.26823e-008	2.01255e-005	2.01982e-005
    83	7.23104e-008	2.01254e-005	2.01977e-005
    84	7.1915e-008	2.01253e-005	2.01972e-005
    85	7.14458e-008	2.01251e-005	2.01966e-005
    86	7.10234e-008	2.0125e-005	2.0196e-005
    87	7.05912e-008	2.01249e-005	2.01955e-005
    88	7.01401e-008	2.01248e-005	2.0195e-005
    89	6.80498e-008	2.01253e-005	2.01934e-005
    90	6.92838e-008	2.01247e-005	2.01939e-005
    91	6.82014e-008	2.01251e-005	2.01933e-005
    92	6.8077e-008	2.01247e-005	2.01928e-005
    93	6.61013e-008	2.01252e-005	2.01913e-005
    94	6.74937e-008	2.01244e-005	2.01919e-005
    95	6.63413e-008	2.01249e-005	2.01913e-005
    96	6.65465e-008	2.01244e-005	2.01909e-005
    97	6.53915e-008	2.01249e-005	2.01903e-005
    98	6.49014e-008	2.01248e-005	2.01897e-005
    99	6.45294e-008	2.01248e-005	2.01893e-005
   100	6.39848e-008	2.01247e-005	2.01887e-005
   101	6.3711e-008	2.01246e-005	2.01883e-005

Measurement: tr2
  step	tr2	FROM	TO
     1	4.44971e-007	6.13959e-005	6.18409e-005
     2	4.26958e-007	6.14023e-005	6.18293e-005
     3	4.29599e-007	6.14089e-005	6.18385e-005
     4	4.24141e-007	6.14151e-005	6.18392e-005
     5	4.29715e-007	6.14211e-005	6.18508e-005
     6	4.19707e-007	6.14268e-005	6.18465e-005
     7	4.10613e-007	6.14346e-005	6.18452e-005
     8	4.1219e-007	6.14403e-005	6.18525e-005
     9	4.00076e-007	6.14467e-005	6.18467e-005
    10	3.97517e-007	6.14531e-005	6.18506e-005
    11	3.96635e-007	6.14588e-005	6.18555e-005
    12	3.92523e-007	6.1465e-005	6.18575e-005
    13	3.88205e-007	6.14718e-005	6.186e-005
    14	3.83945e-007	6.14779e-005	6.18618e-005
    15	3.80107e-007	6.14852e-005	6.18653e-005
    16	3.72277e-007	6.14911e-005	6.18634e-005
    17	3.72528e-007	6.14972e-005	6.18698e-005
    18	3.66939e-007	6.15035e-005	6.18705e-005
    19	3.71535e-007	6.15104e-005	6.18819e-005
    20	3.61612e-007	6.15157e-005	6.18773e-005
    21	3.56563e-007	6.1522e-005	6.18786e-005
    22	3.54088e-007	6.15293e-005	6.18834e-005
    23	3.5054e-007	6.15349e-005	6.18855e-005
    24	3.49881e-007	6.1542e-005	6.18919e-005
    25	3.39898e-007	6.15492e-005	6.18891e-005
    26	3.37453e-007	6.15546e-005	6.1892e-005
    27	3.35036e-007	6.15619e-005	6.1897e-005
    28	3.32549e-007	6.15682e-005	6.19008e-005
    29	3.29576e-007	6.15746e-005	6.19042e-005
    30	3.26713e-007	6.15817e-005	6.19084e-005
    31	3.24339e-007	6.1588e-005	6.19124e-005
    32	3.19763e-007	6.15934e-005	6.19132e-005
    33	3.16447e-007	6.16004e-005	6.19169e-005
    34	3.15338e-007	6.16073e-005	6.19226e-005
    35	3.09993e-007	6.16133e-005	6.19232e-005
    36	3.09589e-007	6.16201e-005	6.19297e-005
    37	3.08057e-007	6.16263e-005	6.19344e-005
    38	3.00327e-007	6.16331e-005	6.19334e-005
    39	2.95342e-007	6.16407e-005	6.19361e-005
    40	2.9518e-007	6.16471e-005	6.19423e-005
    41	2.90053e-007	6.1654e-005	6.1944e-005
    42	2.8949e-007	6.16602e-005	6.19497e-005
    43	2.86572e-007	6.16671e-005	6.19537e-005
    44	2.81851e-007	6.16742e-005	6.19561e-005
    45	2.81596e-007	6.16799e-005	6.19615e-005
    46	2.81002e-007	6.16862e-005	6.19672e-005
    47	2.7567e-007	6.16943e-005	6.19699e-005
    48	2.7632e-007	6.17e-005	6.19763e-005
    49	2.74146e-007	6.17066e-005	6.19808e-005
    50	2.7189e-007	6.1713e-005	6.19849e-005
    51	2.67072e-007	6.17206e-005	6.19877e-005
    52	2.64681e-007	6.17275e-005	6.19922e-005
    53	2.61581e-007	6.17341e-005	6.19957e-005
    54	2.59423e-007	6.17412e-005	6.20007e-005
    55	2.57274e-007	6.17477e-005	6.2005e-005
    56	2.54784e-007	6.17544e-005	6.20092e-005
    57	2.53177e-007	6.17608e-005	6.20139e-005
    58	2.51844e-007	6.17683e-005	6.20201e-005
    59	2.48708e-007	6.17747e-005	6.20234e-005
    60	2.4842e-007	6.17819e-005	6.20303e-005
    61	2.47492e-007	6.17882e-005	6.20356e-005
    62	2.48721e-007	6.17952e-005	6.20439e-005
    63	2.4138e-007	6.1802e-005	6.20434e-005
    64	2.40307e-007	6.1809e-005	6.20493e-005
    65	2.37845e-007	6.18153e-005	6.20532e-005
    66	2.38627e-007	6.18222e-005	6.20609e-005
    67	2.34937e-007	6.18297e-005	6.20646e-005
    68	2.33465e-007	6.18364e-005	6.20699e-005
    69	2.31326e-007	6.1843e-005	6.20743e-005
    70	2.31872e-007	6.18502e-005	6.2082e-005
    71	2.27423e-007	6.18565e-005	6.20839e-005
    72	2.28138e-007	6.1864e-005	6.20922e-005
    73	2.24664e-007	6.18712e-005	6.20959e-005
    74	2.23048e-007	6.18783e-005	6.21014e-005
    75	2.23485e-007	6.18843e-005	6.21078e-005
    76	2.19903e-007	6.18916e-005	6.21115e-005
    77	2.18212e-007	6.18993e-005	6.21175e-005
    78	2.16786e-007	6.19053e-005	6.21221e-005
    79	2.14339e-007	6.19127e-005	6.2127e-005
    80	2.13546e-007	6.19198e-005	6.21334e-005
    81	2.10967e-007	6.19265e-005	6.21375e-005
    82	2.10721e-007	6.19345e-005	6.21453e-005
    83	2.08807e-007	6.19417e-005	6.21505e-005
    84	2.07652e-007	6.19484e-005	6.21561e-005
    85	2.06081e-007	6.19557e-005	6.21617e-005
    86	2.04835e-007	6.19627e-005	6.21675e-005
    87	2.03645e-007	6.19698e-005	6.21734e-005
    88	2.01083e-007	6.19768e-005	6.21779e-005
    89	1.99809e-007	6.19837e-005	6.21835e-005
    90	2.00066e-007	6.19904e-005	6.21904e-005
    91	1.96972e-007	6.19977e-005	6.21947e-005
    92	1.96407e-007	6.20037e-005	6.22001e-005
    93	1.96169e-007	6.20113e-005	6.22075e-005
    94	2.00197e-007	6.20133e-005	6.22135e-005
    95	1.935e-007	6.20268e-005	6.22203e-005
    96	1.90046e-007	6.20332e-005	6.22232e-005
    97	1.87719e-007	6.20404e-005	6.22281e-005
    98	1.87697e-007	6.20477e-005	6.22354e-005
    99	1.87106e-007	6.20551e-005	6.22422e-005
   100	1.85255e-007	6.20623e-005	6.22475e-005
   101	1.84593e-007	6.20695e-005	6.2254e-005

Measurement: vth
  step	v(n004)	at
     1	2.66435	2.01953e-005
     2	2.66446	2.01943e-005
     3	2.66458	2.01933e-005
     4	2.66467	2.01923e-005
     5	2.66477	2.01914e-005
     6	2.66487	2.01904e-005
     7	2.66498	2.01895e-005
     8	2.6651	2.01886e-005
     9	2.66522	2.01876e-005
    10	2.66535	2.01867e-005
    11	2.66548	2.01858e-005
    12	2.6658	2.01847e-005
    13	2.66592	2.01838e-005
    14	2.66603	2.01829e-005
    15	2.66611	2.01821e-005
    16	2.66611	2.01814e-005
    17	2.66611	2.01806e-005
    18	2.66611	2.01799e-005
    19	2.66612	2.01792e-005
    20	2.66614	2.01785e-005
    21	2.66615	2.01778e-005
    22	2.66616	2.01772e-005
    23	2.66617	2.01765e-005
    24	2.66619	2.01758e-005
    25	2.6662	2.01752e-005
    26	2.66623	2.01746e-005
    27	2.66625	2.0174e-005
    28	2.66627	2.01733e-005
    29	2.66629	2.01727e-005
    30	2.66645	2.01721e-005
    31	2.66647	2.01715e-005
    32	2.6665	2.01709e-005
    33	2.66653	2.01704e-005
    34	2.66655	2.01698e-005
    35	2.66637	2.01693e-005
    36	2.66579	2.0169e-005
    37	2.66604	2.01683e-005
    38	2.6659	2.01682e-005
    39	2.66697	2.01671e-005
    40	2.66604	2.01671e-005
    41	2.66718	2.0166e-005
    42	2.66573	2.01661e-005
    43	2.66616	2.01657e-005
    44	2.66739	2.01645e-005
    45	2.66625	2.01645e-005
    46	2.66715	2.01637e-005
    47	2.66675	2.01633e-005
    48	2.6675	2.01627e-005
    49	2.66676	2.01628e-005
    50	2.66599	2.01627e-005
    51	2.66652	2.01619e-005
    52	2.66627	2.01619e-005
    53	2.66689	2.01612e-005
    54	2.66759	2.01604e-005
    55	2.66732	2.01599e-005
    56	2.66739	2.01598e-005
    57	2.66723	2.01593e-005
    58	2.6671	2.0159e-005
    59	2.66777	2.01584e-005
    60	2.66712	2.01586e-005
    61	2.66791	2.01577e-005
    62	2.66792	2.01574e-005
    63	2.66772	2.01571e-005
    64	2.66771	2.01567e-005
    65	2.6677	2.01564e-005
    66	2.66782	2.01561e-005
    67	2.66814	2.01557e-005
    68	2.6683	2.01554e-005
    69	2.66855	2.0155e-005
    70	2.66836	2.01549e-005
    71	2.66784	2.01549e-005
    72	2.66746	2.01548e-005
    73	2.66732	2.01546e-005
    74	2.66756	2.01541e-005
    75	2.66781	2.01537e-005
    76	2.66801	2.01533e-005
    77	2.66759	2.01535e-005
    78	2.66777	2.01532e-005
    79	2.66803	2.01528e-005
    80	2.66825	2.01525e-005
    81	2.6687	2.0152e-005
    82	2.66901	2.01516e-005
    83	2.6692	2.01513e-005
    84	2.66917	2.01511e-005
    85	2.66915	2.01509e-005
    86	2.66914	2.01507e-005
    87	2.66913	2.01504e-005
    88	2.66914	2.01502e-005
    89	2.66864	2.01502e-005
    90	2.66905	2.01498e-005
    91	2.66913	2.01496e-005
    92	2.66916	2.01494e-005
    93	2.66884	2.01494e-005
    94	2.66923	2.0149e-005
    95	2.66948	2.01488e-005
    96	2.66932	2.01486e-005
    97	2.66929	2.01485e-005
    98	2.66948	2.01482e-005
    99	2.66966	2.0148e-005
   100	2.66983	2.01479e-005
   101	2.66982	2.01477e-005


Date: Tue Mar 22 14:29:05 2022
Total elapsed time: 1.278 seconds.

tnom = 27
temp = 27
method = modified trap
totiter = 2699
traniter = 2670
tranpoints = 1149
accept = 1114
rejected = 35
matrix size = 11
fillins = 0
solver = Normal
Matrix Compiler1: 674 bytes object code size  0.1/0.1/[0.1]
Matrix Compiler2: off  [0.1]/0.1/0.1

