Circuit: * C:\Users\user\Documents\LTspiceXVII\file\Montecarlo\monte_SiC.asc

Direct Newton iteration for .op point succeeded.
.step tol1=0
.step tol1=0.01
.step tol1=0.02
.step tol1=0.03
.step tol1=0.04
.step tol1=0.05
.step tol1=0.06
.step tol1=0.07
.step tol1=0.08
.step tol1=0.09
.step tol1=0.1
.step tol1=0.11
.step tol1=0.12
.step tol1=0.13
.step tol1=0.14
.step tol1=0.15
.step tol1=0.16
.step tol1=0.17
.step tol1=0.18
.step tol1=0.19
.step tol1=0.2
.step tol1=0.21
.step tol1=0.22
.step tol1=0.23
.step tol1=0.24
.step tol1=0.25
.step tol1=0.26
.step tol1=0.27
.step tol1=0.28
.step tol1=0.29
.step tol1=0.3
.step tol1=0.31
.step tol1=0.32
.step tol1=0.33
.step tol1=0.34
.step tol1=0.35
.step tol1=0.36
.step tol1=0.37
.step tol1=0.38
.step tol1=0.39
.step tol1=0.4
.step tol1=0.41
.step tol1=0.42
.step tol1=0.43
.step tol1=0.44
.step tol1=0.45
.step tol1=0.46
.step tol1=0.47
.step tol1=0.48
.step tol1=0.49
.step tol1=0.5
.step tol1=0.51
.step tol1=0.52
.step tol1=0.53
.step tol1=0.54
.step tol1=0.55
.step tol1=0.56
.step tol1=0.57
.step tol1=0.58
.step tol1=0.59
.step tol1=0.6
.step tol1=0.61
.step tol1=0.62
.step tol1=0.63
.step tol1=0.64
.step tol1=0.65
.step tol1=0.66
.step tol1=0.67
.step tol1=0.68
.step tol1=0.69
.step tol1=0.7
.step tol1=0.71
.step tol1=0.72
.step tol1=0.73
.step tol1=0.74
.step tol1=0.75
.step tol1=0.76
.step tol1=0.77
.step tol1=0.78
.step tol1=0.79
.step tol1=0.8
.step tol1=0.81
.step tol1=0.82
.step tol1=0.83
.step tol1=0.84
.step tol1=0.85
.step tol1=0.86
.step tol1=0.87
.step tol1=0.88
.step tol1=0.89
.step tol1=0.9
.step tol1=0.91
.step tol1=0.92
.step tol1=0.93
.step tol1=0.94
.step tol1=0.95
.step tol1=0.96
.step tol1=0.97
.step tol1=0.98
.step tol1=0.99
.step tol1=1


Measurement: imax
  step	MAX(-i(v1))	FROM	TO
     1	9.80646	0	0.0001
     2	9.80646	0	0.0001
     3	9.80646	0	0.0001
     4	9.80646	0	0.0001
     5	9.80646	0	0.0001
     6	9.80646	0	0.0001
     7	9.80646	0	0.0001
     8	9.80643	0	0.0001
     9	9.80646	0	0.0001
    10	9.80643	0	0.0001
    11	9.80643	0	0.0001
    12	9.80643	0	0.0001
    13	9.80643	0	0.0001
    14	9.80643	0	0.0001
    15	9.80643	0	0.0001
    16	9.80643	0	0.0001
    17	9.80643	0	0.0001
    18	9.80643	0	0.0001
    19	9.80643	0	0.0001
    20	9.80643	0	0.0001
    21	9.80643	0	0.0001
    22	9.80643	0	0.0001
    23	9.80643	0	0.0001
    24	9.80643	0	0.0001
    25	9.80643	0	0.0001
    26	9.80643	0	0.0001
    27	9.80643	0	0.0001
    28	9.80643	0	0.0001
    29	9.80643	0	0.0001
    30	9.80643	0	0.0001
    31	9.80645	0	0.0001
    32	9.80643	0	0.0001
    33	9.80643	0	0.0001
    34	9.80645	0	0.0001
    35	9.80645	0	0.0001
    36	9.80645	0	0.0001
    37	9.80645	0	0.0001
    38	9.80645	0	0.0001
    39	9.80645	0	0.0001
    40	9.80645	0	0.0001
    41	9.80645	0	0.0001
    42	9.80644	0	0.0001
    43	9.80643	0	0.0001
    44	9.80644	0	0.0001
    45	9.80644	0	0.0001
    46	9.80644	0	0.0001
    47	9.80644	0	0.0001
    48	9.80644	0	0.0001
    49	9.80643	0	0.0001
    50	9.80643	0	0.0001
    51	9.80644	0	0.0001
    52	9.80644	0	0.0001
    53	9.80643	0	0.0001
    54	9.80643	0	0.0001
    55	9.80643	0	0.0001
    56	9.80643	0	0.0001
    57	9.80643	0	0.0001
    58	9.80644	0	0.0001
    59	9.80643	0	0.0001
    60	9.80644	0	0.0001
    61	9.80644	0	0.0001
    62	9.80644	0	0.0001
    63	9.80643	0	0.0001
    64	9.80643	0	0.0001
    65	9.80644	0	0.0001
    66	9.80644	0	0.0001
    67	9.80644	0	0.0001
    68	9.80644	0	0.0001
    69	9.80644	0	0.0001
    70	9.80644	0	0.0001
    71	9.80643	0	0.0001
    72	9.80644	0	0.0001
    73	9.80644	0	0.0001
    74	9.80644	0	0.0001
    75	9.80644	0	0.0001
    76	9.80644	0	0.0001
    77	9.80644	0	0.0001
    78	9.80644	0	0.0001
    79	9.80644	0	0.0001
    80	9.80644	0	0.0001
    81	9.80644	0	0.0001
    82	9.80644	0	0.0001
    83	9.80643	0	0.0001
    84	9.80643	0	0.0001
    85	9.80644	0	0.0001
    86	9.80643	0	0.0001
    87	9.80643	0	0.0001
    88	9.80643	0	0.0001
    89	9.80644	0	0.0001
    90	9.80644	0	0.0001
    91	9.80643	0	0.0001
    92	9.80643	0	0.0001
    93	9.80643	0	0.0001
    94	9.80643	0	0.0001
    95	9.80643	0	0.0001
    96	9.80643	0	0.0001
    97	9.80644	0	0.0001
    98	9.80643	0	0.0001
    99	9.80643	0	0.0001
   100	9.80643	0	0.0001
   101	9.80643	0	0.0001

Measurement: tr1
  step	tr1	FROM	TO
     1	1.8838e-007	2.01446e-005	2.0333e-005
     2	1.89835e-007	2.01447e-005	2.03346e-005
     3	1.91287e-007	2.01449e-005	2.03362e-005
     4	1.92737e-007	2.0145e-005	2.03378e-005
     5	1.94185e-007	2.01452e-005	2.03394e-005
     6	1.95631e-007	2.01453e-005	2.03409e-005
     7	1.97074e-007	2.01455e-005	2.03425e-005
     8	1.98515e-007	2.01456e-005	2.03441e-005
     9	1.99957e-007	2.01458e-005	2.03457e-005
    10	2.01396e-007	2.01459e-005	2.03473e-005
    11	2.0284e-007	2.01461e-005	2.03489e-005
    12	2.04279e-007	2.01462e-005	2.03505e-005
    13	2.05717e-007	2.01463e-005	2.03521e-005
    14	2.07155e-007	2.01465e-005	2.03537e-005
    15	2.08593e-007	2.01466e-005	2.03552e-005
    16	2.10046e-007	2.01468e-005	2.03568e-005
    17	2.11517e-007	2.01469e-005	2.03585e-005
    18	2.12991e-007	2.01471e-005	2.03601e-005
    19	2.14469e-007	2.01472e-005	2.03617e-005
    20	2.15934e-007	2.01474e-005	2.03633e-005
    21	2.17599e-007	2.01475e-005	2.03651e-005
    22	2.19096e-007	2.01477e-005	2.03668e-005
    23	2.20568e-007	2.01479e-005	2.03684e-005
    24	2.22072e-007	2.0148e-005	2.03701e-005
    25	2.23579e-007	2.01482e-005	2.03717e-005
    26	2.25137e-007	2.01483e-005	2.03734e-005
    27	2.26675e-007	2.01485e-005	2.03751e-005
    28	2.28149e-007	2.01486e-005	2.03768e-005
    29	2.29631e-007	2.01488e-005	2.03784e-005
    30	2.31123e-007	2.01489e-005	2.038e-005
    31	2.32626e-007	2.01491e-005	2.03817e-005
    32	2.3414e-007	2.01492e-005	2.03834e-005
    33	2.3567e-007	2.01494e-005	2.03851e-005
    34	2.37099e-007	2.01495e-005	2.03866e-005
    35	2.38665e-007	2.01497e-005	2.03884e-005
    36	2.40251e-007	2.01499e-005	2.03901e-005
    37	2.4186e-007	2.015e-005	2.03919e-005
    38	2.43495e-007	2.01502e-005	2.03937e-005
    39	2.4515e-007	2.01503e-005	2.03955e-005
    40	2.46378e-007	2.01505e-005	2.03969e-005
    41	2.47616e-007	2.01506e-005	2.03982e-005
    42	2.48863e-007	2.01508e-005	2.03996e-005
    43	2.50109e-007	2.01509e-005	2.0401e-005
    44	2.51357e-007	2.0151e-005	2.04024e-005
    45	2.52606e-007	2.01512e-005	2.04038e-005
    46	2.53854e-007	2.01513e-005	2.04052e-005
    47	2.55101e-007	2.01514e-005	2.04065e-005
    48	2.56335e-007	2.01516e-005	2.04079e-005
    49	2.55227e-007	2.01517e-005	2.04069e-005
    50	2.56408e-007	2.01518e-005	2.04083e-005
    51	2.60074e-007	2.0152e-005	2.04121e-005
    52	2.61292e-007	2.01521e-005	2.04134e-005
    53	2.62512e-007	2.01523e-005	2.04148e-005
    54	2.64039e-007	2.01524e-005	2.04164e-005
    55	2.65235e-007	2.01525e-005	2.04178e-005
    56	2.66431e-007	2.01527e-005	2.04191e-005
    57	2.67625e-007	2.01528e-005	2.04204e-005
    58	2.68833e-007	2.01529e-005	2.04218e-005
    59	2.70028e-007	2.01531e-005	2.04231e-005
    60	2.71223e-007	2.01532e-005	2.04244e-005
    61	2.7262e-007	2.01534e-005	2.0426e-005
    62	2.74108e-007	2.01535e-005	2.04276e-005
    63	2.75587e-007	2.01536e-005	2.04292e-005
    64	2.77058e-007	2.01538e-005	2.04308e-005
    65	2.78522e-007	2.01539e-005	2.04324e-005
    66	2.79981e-007	2.0154e-005	2.0434e-005
    67	2.81417e-007	2.01542e-005	2.04356e-005
    68	2.82857e-007	2.01543e-005	2.04372e-005
    69	2.84291e-007	2.01544e-005	2.04387e-005
    70	2.85718e-007	2.01546e-005	2.04403e-005
    71	2.87139e-007	2.01547e-005	2.04419e-005
    72	2.88288e-007	2.01549e-005	2.04431e-005
    73	2.89765e-007	2.0155e-005	2.04448e-005
    74	2.91243e-007	2.01551e-005	2.04464e-005
    75	2.9272e-007	2.01553e-005	2.0448e-005
    76	2.94197e-007	2.01554e-005	2.04496e-005
    77	2.95673e-007	2.01556e-005	2.04512e-005
    78	2.97194e-007	2.01557e-005	2.04529e-005
    79	2.98668e-007	2.01558e-005	2.04545e-005
    80	3.00147e-007	2.0156e-005	2.04561e-005
    81	3.01626e-007	2.01561e-005	2.04577e-005
    82	3.03102e-007	2.01562e-005	2.04593e-005
    83	3.04573e-007	2.01564e-005	2.0461e-005
    84	3.06042e-007	2.01565e-005	2.04626e-005
    85	3.07508e-007	2.01567e-005	2.04642e-005
    86	3.08971e-007	2.01568e-005	2.04658e-005
    87	3.10433e-007	2.01569e-005	2.04674e-005
    88	3.11893e-007	2.01571e-005	2.0469e-005
    89	3.1514e-007	2.01572e-005	2.04723e-005
    90	3.16303e-007	2.01573e-005	2.04737e-005
    91	3.17451e-007	2.01575e-005	2.04749e-005
    92	3.18586e-007	2.01576e-005	2.04762e-005
    93	3.19702e-007	2.01578e-005	2.04775e-005
    94	3.20796e-007	2.01579e-005	2.04787e-005
    95	3.21858e-007	2.0158e-005	2.04799e-005
    96	3.22894e-007	2.01582e-005	2.04811e-005
    97	3.23924e-007	2.01583e-005	2.04822e-005
    98	3.24951e-007	2.01585e-005	2.04834e-005
    99	3.25977e-007	2.01586e-005	2.04846e-005
   100	3.27003e-007	2.01587e-005	2.04857e-005
   101	3.28031e-007	2.01589e-005	2.04869e-005

Measurement: tr2
  step	tr2	FROM	TO
     1	4.24943e-007	6.12087e-005	6.16336e-005
     2	4.20452e-007	6.12164e-005	6.16368e-005
     3	4.30176e-007	6.12242e-005	6.16544e-005
     4	4.28604e-007	6.12318e-005	6.16604e-005
     5	4.35932e-007	6.12397e-005	6.16757e-005
     6	4.39116e-007	6.12479e-005	6.1687e-005
     7	4.33626e-007	6.12555e-005	6.16892e-005
     8	4.39347e-007	6.12629e-005	6.17022e-005
     9	4.4625e-007	6.12709e-005	6.17172e-005
    10	4.48748e-007	6.12784e-005	6.17272e-005
    11	4.52747e-007	6.1286e-005	6.17387e-005
    12	4.52089e-007	6.12936e-005	6.17457e-005
    13	4.57617e-007	6.13014e-005	6.1759e-005
    14	4.58168e-007	6.13091e-005	6.17672e-005
    15	4.59427e-007	6.13166e-005	6.1776e-005
    16	4.65539e-007	6.13243e-005	6.17899e-005
    17	4.65494e-007	6.13319e-005	6.17974e-005
    18	4.71753e-007	6.13393e-005	6.1811e-005
    19	4.68634e-007	6.13469e-005	6.18155e-005
    20	4.70373e-007	6.13548e-005	6.18252e-005
    21	4.75045e-007	6.13625e-005	6.18376e-005
    22	4.78159e-007	6.13703e-005	6.18484e-005
    23	4.8226e-007	6.13779e-005	6.18602e-005
    24	4.83014e-007	6.13857e-005	6.18688e-005
    25	4.83337e-007	6.13931e-005	6.18765e-005
    26	4.89859e-007	6.14015e-005	6.18913e-005
    27	4.89496e-007	6.14086e-005	6.18981e-005
    28	4.94783e-007	6.14166e-005	6.19114e-005
    29	4.97571e-007	6.14242e-005	6.19218e-005
    30	5.00196e-007	6.1432e-005	6.19322e-005
    31	5.07317e-007	6.14398e-005	6.19472e-005
    32	5.09976e-007	6.14473e-005	6.19573e-005
    33	5.13044e-007	6.14552e-005	6.19683e-005
    34	5.116e-007	6.14629e-005	6.19745e-005
    35	5.15786e-007	6.14705e-005	6.19863e-005
    36	5.1666e-007	6.14778e-005	6.19944e-005
    37	5.19191e-007	6.14857e-005	6.20049e-005
    38	5.20398e-007	6.14934e-005	6.20138e-005
    39	5.27863e-007	6.15009e-005	6.20288e-005
    40	5.26997e-007	6.15086e-005	6.20356e-005
    41	5.32833e-007	6.15162e-005	6.20491e-005
    42	5.33603e-007	6.15243e-005	6.20579e-005
    43	5.40201e-007	6.15326e-005	6.20728e-005
    44	5.3998e-007	6.15398e-005	6.20797e-005
    45	5.40685e-007	6.15476e-005	6.20883e-005
    46	5.45765e-007	6.15547e-005	6.21005e-005
    47	5.48223e-007	6.15624e-005	6.21106e-005
    48	5.5064e-007	6.15706e-005	6.21212e-005
    49	5.51404e-007	6.15779e-005	6.21293e-005
    50	5.55684e-007	6.1586e-005	6.21417e-005
    51	5.62802e-007	6.15931e-005	6.21559e-005
    52	5.61054e-007	6.16007e-005	6.21618e-005
    53	5.64549e-007	6.1609e-005	6.21735e-005
    54	5.70679e-007	6.16165e-005	6.21872e-005
    55	5.73546e-007	6.16245e-005	6.2198e-005
    56	5.76321e-007	6.16317e-005	6.2208e-005
    57	5.78698e-007	6.16394e-005	6.22181e-005
    58	5.80518e-007	6.16469e-005	6.22274e-005
    59	5.8377e-007	6.16552e-005	6.22389e-005
    60	5.87564e-007	6.16625e-005	6.22501e-005
    61	5.88725e-007	6.16699e-005	6.22586e-005
    62	5.92565e-007	6.16779e-005	6.22705e-005
    63	5.92355e-007	6.16862e-005	6.22785e-005
    64	5.94877e-007	6.16932e-005	6.22881e-005
    65	5.97473e-007	6.17013e-005	6.22988e-005
    66	6.02082e-007	6.17086e-005	6.23107e-005
    67	6.04753e-007	6.17161e-005	6.23208e-005
    68	6.08687e-007	6.1724e-005	6.23327e-005
    69	6.12576e-007	6.17317e-005	6.23443e-005
    70	6.15122e-007	6.17391e-005	6.23542e-005
    71	6.1663e-007	6.17473e-005	6.23639e-005
    72	6.18885e-007	6.17543e-005	6.23732e-005
    73	6.22025e-007	6.17625e-005	6.23845e-005
    74	6.24681e-007	6.17701e-005	6.23948e-005
    75	6.27062e-007	6.17774e-005	6.24045e-005
    76	6.30159e-007	6.17855e-005	6.24156e-005
    77	6.33895e-007	6.17928e-005	6.24267e-005
    78	6.35427e-007	6.18004e-005	6.24358e-005
    79	6.39367e-007	6.18085e-005	6.24479e-005
    80	6.4098e-007	6.18161e-005	6.24571e-005
    81	6.45129e-007	6.18239e-005	6.2469e-005
    82	6.47765e-007	6.18312e-005	6.24789e-005
    83	6.50469e-007	6.18392e-005	6.24897e-005
    84	6.5354e-007	6.18476e-005	6.25011e-005
    85	6.5645e-007	6.18548e-005	6.25112e-005
    86	6.5936e-007	6.18624e-005	6.25217e-005
    87	6.60896e-007	6.18702e-005	6.25311e-005
    88	6.65012e-007	6.18772e-005	6.25422e-005
    89	6.68033e-007	6.18847e-005	6.25527e-005
    90	6.68777e-007	6.18928e-005	6.25615e-005
    91	6.71633e-007	6.19007e-005	6.25723e-005
    92	6.7579e-007	6.19082e-005	6.2584e-005
    93	6.79447e-007	6.19162e-005	6.25956e-005
    94	6.81249e-007	6.1924e-005	6.26053e-005
    95	6.85036e-007	6.19315e-005	6.26166e-005
    96	6.88091e-007	6.19389e-005	6.2627e-005
    97	6.89629e-007	6.19466e-005	6.26362e-005
    98	6.92884e-007	6.19547e-005	6.26476e-005
    99	6.95714e-007	6.19628e-005	6.26585e-005
   100	6.98548e-007	6.19701e-005	6.26687e-005
   101	7.0225e-007	6.19769e-005	6.26791e-005

Measurement: vth
  step	v(n004)	at
     1	1.88283	2.01041e-005
     2	1.88251	2.01041e-005
     3	1.88221	2.01042e-005
     4	1.88192	2.01042e-005
     5	1.88164	2.01042e-005
     6	1.88138	2.01042e-005
     7	1.88114	2.01042e-005
     8	1.88091	2.01043e-005
     9	1.88069	2.01043e-005
    10	1.88049	2.01043e-005
    11	1.8803	2.01043e-005
    12	1.88013	2.01044e-005
    13	1.87998	2.01044e-005
    14	1.87984	2.01044e-005
    15	1.87972	2.01044e-005
    16	1.87961	2.01045e-005
    17	1.87952	2.01045e-005
    18	1.87945	2.01045e-005
    19	1.8794	2.01045e-005
    20	1.87936	2.01046e-005
    21	1.87934	2.01046e-005
    22	1.87935	2.01046e-005
    23	1.87937	2.01047e-005
    24	1.8794	2.01047e-005
    25	1.87946	2.01047e-005
    26	1.87954	2.01048e-005
    27	1.87964	2.01048e-005
    28	1.87976	2.01048e-005
    29	1.8799	2.01049e-005
    30	1.88006	2.01049e-005
    31	1.88024	2.01049e-005
    32	1.88044	2.0105e-005
    33	1.88067	2.0105e-005
    34	1.88092	2.01051e-005
    35	1.88119	2.01051e-005
    36	1.88148	2.01051e-005
    37	1.8818	2.01052e-005
    38	1.88214	2.01052e-005
    39	1.88251	2.01053e-005
    40	1.8829	2.01053e-005
    41	1.88332	2.01053e-005
    42	1.88376	2.01054e-005
    43	1.88423	2.01054e-005
    44	1.88472	2.01055e-005
    45	1.88524	2.01055e-005
    46	1.88579	2.01056e-005
    47	1.88637	2.01056e-005
    48	1.88698	2.01057e-005
    49	1.88761	2.01057e-005
    50	1.88827	2.01058e-005
    51	1.88897	2.01058e-005
    52	1.88969	2.01059e-005
    53	1.89044	2.0106e-005
    54	1.89123	2.0106e-005
    55	1.89205	2.01061e-005
    56	1.89289	2.01061e-005
    57	1.89378	2.01062e-005
    58	1.89469	2.01063e-005
    59	1.89564	2.01063e-005
    60	1.89662	2.01064e-005
    61	1.89764	2.01064e-005
    62	1.89869	2.01065e-005
    63	1.89978	2.01066e-005
    64	1.9009	2.01066e-005
    65	1.90207	2.01067e-005
    66	1.90326	2.01068e-005
    67	1.9045	2.01069e-005
    68	1.90578	2.01069e-005
    69	1.90709	2.0107e-005
    70	1.90845	2.01071e-005
    71	1.90985	2.01072e-005
    72	1.91128	2.01073e-005
    73	1.91276	2.01073e-005
    74	1.91429	2.01074e-005
    75	1.91585	2.01075e-005
    76	1.91746	2.01076e-005
    77	1.91911	2.01077e-005
    78	1.92081	2.01078e-005
    79	1.92256	2.01079e-005
    80	1.92435	2.0108e-005
    81	1.92619	2.0108e-005
    82	1.92807	2.01081e-005
    83	1.93001	2.01082e-005
    84	1.93196	2.01083e-005
    85	1.93399	2.01084e-005
    86	1.93607	2.01085e-005
    87	1.93821	2.01087e-005
    88	1.9404	2.01088e-005
    89	1.94264	2.01089e-005
    90	1.94493	2.0109e-005
    91	1.94728	2.01091e-005
    92	1.94969	2.01092e-005
    93	1.95215	2.01093e-005
    94	1.95467	2.01094e-005
    95	1.95724	2.01096e-005
    96	1.9572	2.01096e-005
    97	1.95635	2.01096e-005
    98	1.9555	2.01096e-005
    99	1.95465	2.01096e-005
   100	1.9538	2.01096e-005
   101	1.95296	2.01096e-005


Date: Wed Mar 23 09:32:33 2022
Total elapsed time: 1.857 seconds.

tnom = 27
temp = 27
method = modified trap
totiter = 2305
traniter = 2275
tranpoints = 1110
accept = 1088
rejected = 22
matrix size = 11
fillins = 0
solver = Normal
Matrix Compiler1: 674 bytes object code size  0.1/0.1/[0.1]
Matrix Compiler2: 847 bytes object code size  0.1/0.1/[0.1]

