Circuit: * C:\Users\user\Documents\LTspiceXVII\file\Montecarlo\monte_SiC.asc

Direct Newton iteration for .op point succeeded.
.step tol1=0
.step tol1=0.01
.step tol1=0.02
.step tol1=0.03
.step tol1=0.04
.step tol1=0.05
.step tol1=0.06
.step tol1=0.07
.step tol1=0.08
.step tol1=0.09
.step tol1=0.1
.step tol1=0.11
.step tol1=0.12
.step tol1=0.13
.step tol1=0.14
.step tol1=0.15
.step tol1=0.16
.step tol1=0.17
.step tol1=0.18
.step tol1=0.19
.step tol1=0.2
.step tol1=0.21
.step tol1=0.22
.step tol1=0.23
.step tol1=0.24
.step tol1=0.25
.step tol1=0.26
.step tol1=0.27
.step tol1=0.28
.step tol1=0.29
.step tol1=0.3
.step tol1=0.31
.step tol1=0.32
.step tol1=0.33
.step tol1=0.34
.step tol1=0.35
.step tol1=0.36
.step tol1=0.37
.step tol1=0.38
.step tol1=0.39
.step tol1=0.4
.step tol1=0.41
.step tol1=0.42
.step tol1=0.43
.step tol1=0.44
.step tol1=0.45
.step tol1=0.46
.step tol1=0.47
.step tol1=0.48
.step tol1=0.49
.step tol1=0.5
.step tol1=0.51
.step tol1=0.52
.step tol1=0.53
.step tol1=0.54
.step tol1=0.55
.step tol1=0.56
.step tol1=0.57
.step tol1=0.58
.step tol1=0.59
.step tol1=0.6
.step tol1=0.61
.step tol1=0.62
.step tol1=0.63
.step tol1=0.64
.step tol1=0.65
.step tol1=0.66
.step tol1=0.67
.step tol1=0.68
.step tol1=0.69
.step tol1=0.7
.step tol1=0.71
.step tol1=0.72
.step tol1=0.73
.step tol1=0.74
.step tol1=0.75
.step tol1=0.76
.step tol1=0.77
.step tol1=0.78
.step tol1=0.79
.step tol1=0.8
.step tol1=0.81
.step tol1=0.82
.step tol1=0.83
.step tol1=0.84
.step tol1=0.85
.step tol1=0.86
.step tol1=0.87
.step tol1=0.88
.step tol1=0.89
.step tol1=0.9
.step tol1=0.91
.step tol1=0.92
.step tol1=0.93
.step tol1=0.94
.step tol1=0.95
.step tol1=0.96
.step tol1=0.97
.step tol1=0.98
.step tol1=0.99
.step tol1=1


Measurement: imax
  step	MAX(-i(v1))	FROM	TO
     1	0.998033	0	0.0001
     2	0.998035	0	0.0001
     3	0.998034	0	0.0001
     4	0.998033	0	0.0001
     5	0.998033	0	0.0001
     6	0.998031	0	0.0001
     7	0.998032	0	0.0001
     8	0.998032	0	0.0001
     9	0.99803	0	0.0001
    10	0.99803	0	0.0001
    11	0.99803	0	0.0001
    12	0.998029	0	0.0001
    13	0.998029	0	0.0001
    14	0.998029	0	0.0001
    15	0.99803	0	0.0001
    16	0.998027	0	0.0001
    17	0.998027	0	0.0001
    18	0.998026	0	0.0001
    19	0.998026	0	0.0001
    20	0.998026	0	0.0001
    21	0.998025	0	0.0001
    22	0.998024	0	0.0001
    23	0.998028	0	0.0001
    24	0.998028	0	0.0001
    25	0.998028	0	0.0001
    26	0.998022	0	0.0001
    27	0.998022	0	0.0001
    28	0.998024	0	0.0001
    29	0.998021	0	0.0001
    30	0.998021	0	0.0001
    31	0.99802	0	0.0001
    32	0.99802	0	0.0001
    33	0.998019	0	0.0001
    34	0.99802	0	0.0001
    35	0.998018	0	0.0001
    36	0.998018	0	0.0001
    37	0.998018	0	0.0001
    38	0.998017	0	0.0001
    39	0.998016	0	0.0001
    40	0.998017	0	0.0001
    41	0.998015	0	0.0001
    42	0.998015	0	0.0001
    43	0.998014	0	0.0001
    44	0.998014	0	0.0001
    45	0.998013	0	0.0001
    46	0.998017	0	0.0001
    47	0.998015	0	0.0001
    48	0.998011	0	0.0001
    49	0.998015	0	0.0001
    50	0.99801	0	0.0001
    51	0.99801	0	0.0001
    52	0.998012	0	0.0001
    53	0.998011	0	0.0001
    54	0.998008	0	0.0001
    55	0.99801	0	0.0001
    56	0.998007	0	0.0001
    57	0.998006	0	0.0001
    58	0.998006	0	0.0001
    59	0.998006	0	0.0001
    60	0.998008	0	0.0001
    61	0.998007	0	0.0001
    62	0.998003	0	0.0001
    63	0.998005	0	0.0001
    64	0.998004	0	0.0001
    65	0.998004	0	0.0001
    66	0.998003	0	0.0001
    67	0.998002	0	0.0001
    68	0.998	0	0.0001
    69	0.997999	0	0.0001
    70	0.997998	0	0.0001
    71	0.997998	0	0.0001
    72	0.997997	0	0.0001
    73	0.997996	0	0.0001
    74	0.997995	0	0.0001
    75	0.997996	0	0.0001
    76	0.997994	0	0.0001
    77	0.997993	0	0.0001
    78	0.997998	0	0.0001
    79	0.997998	0	0.0001
    80	0.997991	0	0.0001
    81	0.997991	0	0.0001
    82	0.99799	0	0.0001
    83	0.997996	0	0.0001
    84	0.997995	0	0.0001
    85	0.997993	0	0.0001
    86	0.997993	0	0.0001
    87	0.99799	0	0.0001
    88	0.99799	0	0.0001
    89	0.997985	0	0.0001
    90	0.997984	0	0.0001
    91	0.997984	0	0.0001
    92	0.997983	0	0.0001
    93	0.997984	0	0.0001
    94	0.997983	0	0.0001
    95	0.99798	0	0.0001
    96	0.997979	0	0.0001
    97	0.99798	0	0.0001
    98	0.997978	0	0.0001
    99	0.997977	0	0.0001
   100	0.997977	0	0.0001
   101	0.997975	0	0.0001

Measurement: tr1
  step	tr1	FROM	TO
     1	1.46403e-007	2.01363e-005	2.02827e-005
     2	1.47614e-007	2.01371e-005	2.02847e-005
     3	1.48729e-007	2.01379e-005	2.02866e-005
     4	1.49904e-007	2.01387e-005	2.02886e-005
     5	1.50706e-007	2.01395e-005	2.02902e-005
     6	1.52055e-007	2.01403e-005	2.02923e-005
     7	1.5323e-007	2.01411e-005	2.02943e-005
     8	1.54687e-007	2.01418e-005	2.02965e-005
     9	1.55802e-007	2.01426e-005	2.02984e-005
    10	1.54808e-007	2.01433e-005	2.02981e-005
    11	1.55186e-007	2.0144e-005	2.02992e-005
    12	1.59154e-007	2.01447e-005	2.03039e-005
    13	1.60099e-007	2.01454e-005	2.03055e-005
    14	1.6106e-007	2.0146e-005	2.03071e-005
    15	1.61786e-007	2.01472e-005	2.03089e-005
    16	1.56673e-007	2.01481e-005	2.03047e-005
    17	1.57414e-007	2.0149e-005	2.03064e-005
    18	1.58174e-007	2.01499e-005	2.0308e-005
    19	1.58925e-007	2.01507e-005	2.03097e-005
    20	1.5965e-007	2.01516e-005	2.03113e-005
    21	1.60441e-007	2.01525e-005	2.03129e-005
    22	1.67119e-007	2.01533e-005	2.03204e-005
    23	1.68173e-007	2.01541e-005	2.03222e-005
    24	1.69234e-007	2.01548e-005	2.0324e-005
    25	1.70273e-007	2.01555e-005	2.03257e-005
    26	1.69228e-007	2.01555e-005	2.03247e-005
    27	1.71844e-007	2.01566e-005	2.03284e-005
    28	1.72993e-007	2.01577e-005	2.03307e-005
    29	1.73699e-007	2.01589e-005	2.03326e-005
    30	1.74462e-007	2.016e-005	2.03345e-005
    31	1.74917e-007	2.01612e-005	2.03361e-005
    32	1.75586e-007	2.01624e-005	2.0338e-005
    33	1.75236e-007	2.01637e-005	2.03389e-005
    34	1.7058e-007	2.01649e-005	2.03355e-005
    35	1.71332e-007	2.01661e-005	2.03374e-005
    36	1.71949e-007	2.01674e-005	2.03393e-005
    37	1.7302e-007	2.01682e-005	2.03412e-005
    38	1.77784e-007	2.0169e-005	2.03468e-005
    39	1.78086e-007	2.01698e-005	2.03479e-005
    40	1.79007e-007	2.01707e-005	2.03497e-005
    41	1.79949e-007	2.01715e-005	2.03514e-005
    42	1.81312e-007	2.01723e-005	2.03536e-005
    43	1.82858e-007	2.01731e-005	2.03559e-005
    44	1.84383e-007	2.01738e-005	2.03582e-005
    45	1.85665e-007	2.01748e-005	2.03604e-005
    46	1.87138e-007	2.01757e-005	2.03629e-005
    47	1.89421e-007	2.01768e-005	2.03662e-005
    48	1.90397e-007	2.01778e-005	2.03682e-005
    49	1.91274e-007	2.01789e-005	2.03701e-005
    50	1.91936e-007	2.01799e-005	2.03719e-005
    51	1.92597e-007	2.01811e-005	2.03736e-005
    52	1.93199e-007	2.01822e-005	2.03754e-005
    53	1.93839e-007	2.01834e-005	2.03772e-005
    54	1.95259e-007	2.01845e-005	2.03798e-005
    55	1.95725e-007	2.01857e-005	2.03815e-005
    56	1.95452e-007	2.01869e-005	2.03824e-005
    57	1.95439e-007	2.01881e-005	2.03836e-005
    58	1.95765e-007	2.01894e-005	2.03851e-005
    59	1.96296e-007	2.01906e-005	2.03869e-005
    60	1.96822e-007	2.01916e-005	2.03885e-005
    61	1.97905e-007	2.01926e-005	2.03905e-005
    62	1.99584e-007	2.01936e-005	2.03932e-005
    63	2.00572e-007	2.01946e-005	2.03952e-005
    64	2.0164e-007	2.01956e-005	2.03972e-005
    65	2.02781e-007	2.01966e-005	2.03994e-005
    66	2.03985e-007	2.01976e-005	2.04016e-005
    67	2.05229e-007	2.01986e-005	2.04039e-005
    68	2.065e-007	2.01997e-005	2.04062e-005
    69	2.07772e-007	2.02007e-005	2.04085e-005
    70	2.09031e-007	2.02018e-005	2.04108e-005
    71	2.103e-007	2.02029e-005	2.04132e-005
    72	2.11594e-007	2.0204e-005	2.04156e-005
    73	2.12899e-007	2.02051e-005	2.0418e-005
    74	2.14352e-007	2.02063e-005	2.04206e-005
    75	2.16009e-007	2.02069e-005	2.04229e-005
    76	2.18845e-007	2.02074e-005	2.04262e-005
    77	2.22279e-007	2.02078e-005	2.043e-005
    78	2.25295e-007	2.02084e-005	2.04337e-005
    79	2.27974e-007	2.0209e-005	2.04369e-005
    80	2.30312e-007	2.02077e-005	2.0438e-005
    81	2.31692e-007	2.02091e-005	2.04408e-005
    82	2.32615e-007	2.02106e-005	2.04432e-005
    83	2.33858e-007	2.0212e-005	2.04459e-005
    84	2.34916e-007	2.02135e-005	2.04484e-005
    85	2.35716e-007	2.02149e-005	2.04506e-005
    86	2.38346e-007	2.02163e-005	2.04546e-005
    87	2.3981e-007	2.02177e-005	2.04575e-005
    88	2.39875e-007	2.0219e-005	2.04589e-005
    89	2.40213e-007	2.02204e-005	2.04606e-005
    90	2.40414e-007	2.0222e-005	2.04624e-005
    91	2.4173e-007	2.02235e-005	2.04653e-005
    92	2.42958e-007	2.02251e-005	2.04681e-005
    93	2.43137e-007	2.02267e-005	2.04698e-005
    94	2.44054e-007	2.02283e-005	2.04724e-005
    95	2.45916e-007	2.02295e-005	2.04754e-005
    96	2.47506e-007	2.02305e-005	2.0478e-005
    97	2.50407e-007	2.02314e-005	2.04818e-005
    98	2.52558e-007	2.02324e-005	2.0485e-005
    99	2.54801e-007	2.02334e-005	2.04882e-005
   100	2.56763e-007	2.02346e-005	2.04914e-005
   101	2.58647e-007	2.02359e-005	2.04946e-005

Measurement: tr2
  step	tr2	FROM	TO
     1	4.44971e-007	6.13959e-005	6.18409e-005
     2	4.4097e-007	6.13909e-005	6.18319e-005
     3	4.30621e-007	6.13858e-005	6.18164e-005
     4	4.32262e-007	6.13814e-005	6.18136e-005
     5	4.34564e-007	6.13764e-005	6.18109e-005
     6	4.2947e-007	6.13714e-005	6.18009e-005
     7	4.14613e-007	6.13672e-005	6.17818e-005
     8	4.17409e-007	6.13627e-005	6.17801e-005
     9	4.0631e-007	6.13577e-005	6.1764e-005
    10	4.10821e-007	6.13535e-005	6.17643e-005
    11	4.10456e-007	6.13483e-005	6.17587e-005
    12	4.03735e-007	6.13444e-005	6.17481e-005
    13	4.0837e-007	6.13395e-005	6.17479e-005
    14	3.9806e-007	6.13354e-005	6.17335e-005
    15	3.95138e-007	6.13311e-005	6.17263e-005
    16	3.91987e-007	6.13259e-005	6.17179e-005
    17	3.92568e-007	6.13219e-005	6.17145e-005
    18	3.86445e-007	6.13177e-005	6.17041e-005
    19	3.8233e-007	6.1313e-005	6.16953e-005
    20	3.79303e-007	6.13093e-005	6.16886e-005
    21	3.763e-007	6.13049e-005	6.16812e-005
    22	3.71984e-007	6.13005e-005	6.16724e-005
    23	3.69458e-007	6.12965e-005	6.1666e-005
    24	3.6769e-007	6.12918e-005	6.16595e-005
    25	3.66096e-007	6.12876e-005	6.16537e-005
    26	3.64955e-007	6.12834e-005	6.16484e-005
    27	3.64487e-007	6.12791e-005	6.16436e-005
    28	3.59449e-007	6.1275e-005	6.16344e-005
    29	3.64527e-007	6.12711e-005	6.16356e-005
    30	3.57426e-007	6.1267e-005	6.16244e-005
    31	3.54193e-007	6.12627e-005	6.16169e-005
    32	3.53516e-007	6.12589e-005	6.16124e-005
    33	3.48936e-007	6.12551e-005	6.16041e-005
    34	3.49746e-007	6.12515e-005	6.16012e-005
    35	3.48961e-007	6.12476e-005	6.15966e-005
    36	3.44391e-007	6.12433e-005	6.15877e-005
    37	3.41426e-007	6.12393e-005	6.15807e-005
    38	3.4265e-007	6.12354e-005	6.1578e-005
    39	3.3961e-007	6.12315e-005	6.15712e-005
    40	3.36681e-007	6.12275e-005	6.15642e-005
    41	3.33092e-007	6.12236e-005	6.15567e-005
    42	3.31289e-007	6.12197e-005	6.1551e-005
    43	3.31108e-007	6.12162e-005	6.15473e-005
    44	3.2917e-007	6.12123e-005	6.15415e-005
    45	3.27369e-007	6.12082e-005	6.15356e-005
    46	3.25643e-007	6.12048e-005	6.15304e-005
    47	3.23992e-007	6.12005e-005	6.15245e-005
    48	3.23807e-007	6.11976e-005	6.15214e-005
    49	3.21757e-007	6.11937e-005	6.15155e-005
    50	3.18919e-007	6.11896e-005	6.15085e-005
    51	3.18893e-007	6.11867e-005	6.15055e-005
    52	3.16283e-007	6.1183e-005	6.14992e-005
    53	3.15974e-007	6.1179e-005	6.14949e-005
    54	3.12415e-007	6.1175e-005	6.14874e-005
    55	3.12815e-007	6.11709e-005	6.14837e-005
    56	3.1459e-007	6.11676e-005	6.14822e-005
    57	3.08806e-007	6.11639e-005	6.14727e-005
    58	3.0583e-007	6.11613e-005	6.14671e-005
    59	3.0684e-007	6.1157e-005	6.14638e-005
    60	3.06033e-007	6.11537e-005	6.14597e-005
    61	3.02336e-007	6.11503e-005	6.14526e-005
    62	2.99956e-007	6.11468e-005	6.14467e-005
    63	3.01524e-007	6.11429e-005	6.14444e-005
    64	3.02754e-007	6.11386e-005	6.14413e-005
    65	2.97787e-007	6.11352e-005	6.1433e-005
    66	2.9699e-007	6.11319e-005	6.14289e-005
    67	2.97413e-007	6.11286e-005	6.1426e-005
    68	2.99098e-007	6.11255e-005	6.14246e-005
    69	2.94549e-007	6.11216e-005	6.14161e-005
    70	2.9346e-007	6.1118e-005	6.14115e-005
    71	2.91922e-007	6.11151e-005	6.1407e-005
    72	2.93016e-007	6.11115e-005	6.14045e-005
    73	2.91851e-007	6.11076e-005	6.13995e-005
    74	2.91133e-007	6.11042e-005	6.13953e-005
    75	2.87754e-007	6.11007e-005	6.13885e-005
    76	2.86531e-007	6.10972e-005	6.13838e-005
    77	2.8966e-007	6.10936e-005	6.13832e-005
    78	2.85016e-007	6.10903e-005	6.13753e-005
    79	2.84655e-007	6.10866e-005	6.13712e-005
    80	2.83594e-007	6.10831e-005	6.13667e-005
    81	2.82671e-007	6.10797e-005	6.13623e-005
    82	2.81904e-007	6.10764e-005	6.13583e-005
    83	2.79864e-007	6.1073e-005	6.13529e-005
    84	2.80598e-007	6.10694e-005	6.135e-005
    85	2.78586e-007	6.10659e-005	6.13445e-005
    86	2.79575e-007	6.10622e-005	6.13418e-005
    87	2.78732e-007	6.10591e-005	6.13379e-005
    88	2.79362e-007	6.10547e-005	6.13341e-005
    89	2.76162e-007	6.10528e-005	6.1329e-005
    90	2.80027e-007	6.10469e-005	6.13269e-005
    91	2.77161e-007	6.10445e-005	6.13217e-005
    92	2.77361e-007	6.10405e-005	6.13179e-005
    93	2.75419e-007	6.10365e-005	6.13119e-005
    94	2.82731e-007	6.10289e-005	6.13117e-005
    95	2.80332e-007	6.10268e-005	6.13072e-005
    96	2.71578e-007	6.10295e-005	6.13011e-005
    97	2.73919e-007	6.10227e-005	6.12966e-005
    98	2.72633e-007	6.10223e-005	6.12949e-005
    99	2.75031e-007	6.10157e-005	6.12908e-005
   100	2.73137e-007	6.10135e-005	6.12866e-005
   101	2.72098e-007	6.10115e-005	6.12836e-005

Measurement: vth
  step	v(n004)	at
     1	2.66435	2.01953e-005
     2	2.68744	2.01962e-005
     3	2.71021	2.01973e-005
     4	2.73302	2.01985e-005
     5	2.75585	2.01997e-005
     6	2.77886	2.02005e-005
     7	2.80182	2.02015e-005
     8	2.82484	2.02025e-005
     9	2.84825	2.02035e-005
    10	2.87126	2.02045e-005
    11	2.89426	2.02056e-005
    12	2.91723	2.02067e-005
    13	2.9402	2.02078e-005
    14	2.96317	2.02089e-005
    15	2.98631	2.02099e-005
    16	3.00943	2.02109e-005
    17	3.03253	2.0212e-005
    18	3.05559	2.0213e-005
    19	3.07862	2.02141e-005
    20	3.10145	2.02153e-005
    21	3.12443	2.02164e-005
    22	3.14736	2.02176e-005
    23	3.17025	2.02188e-005
    24	3.19308	2.022e-005
    25	3.21605	2.02212e-005
    26	3.23856	2.02228e-005
    27	3.26163	2.02239e-005
    28	3.28474	2.02249e-005
    29	3.30781	2.0226e-005
    30	3.33097	2.02269e-005
    31	3.35414	2.0228e-005
    32	3.37726	2.02292e-005
    33	3.40052	2.02301e-005
    34	3.42352	2.02313e-005
    35	3.44594	2.02331e-005
    36	3.46859	2.02346e-005
    37	3.4912	2.02362e-005
    38	3.5139	2.02377e-005
    39	3.5367	2.0239e-005
    40	3.55959	2.02402e-005
    41	3.58247	2.02414e-005
    42	3.6056	2.02424e-005
    43	3.6287	2.02435e-005
    44	3.65177	2.02446e-005
    45	3.67489	2.02459e-005
    46	3.6978	2.02472e-005
    47	3.72076	2.02485e-005
    48	3.74374	2.02497e-005
    49	3.76686	2.02509e-005
    50	3.79005	2.0252e-005
    51	3.81322	2.02531e-005
    52	3.8364	2.02543e-005
    53	3.85917	2.02559e-005
    54	3.88206	2.02574e-005
    55	3.90495	2.02588e-005
    56	3.9279	2.02601e-005
    57	3.95088	2.02615e-005
    58	3.9739	2.02627e-005
    59	3.99694	2.0264e-005
    60	4.01968	2.02656e-005
    61	4.04253	2.02671e-005
    62	4.0653	2.02686e-005
    63	4.08818	2.02701e-005
    64	4.11107	2.02716e-005
    65	4.13398	2.0273e-005
    66	4.1569	2.02745e-005
    67	4.17984	2.02759e-005
    68	4.20279	2.02774e-005
    69	4.22576	2.02788e-005
    70	4.24875	2.02802e-005
    71	4.27177	2.02815e-005
    72	4.29483	2.02828e-005
    73	4.31792	2.02841e-005
    74	4.34107	2.02853e-005
    75	4.36439	2.02863e-005
    76	4.38773	2.02872e-005
    77	4.41049	2.02888e-005
    78	4.43327	2.02904e-005
    79	4.45615	2.02921e-005
    80	4.47835	2.02939e-005
    81	4.50135	2.02954e-005
    82	4.52467	2.02968e-005
    83	4.5477	2.02983e-005
    84	4.57081	2.02997e-005
    85	4.59387	2.03012e-005
    86	4.61682	2.03025e-005
    87	4.63986	2.03041e-005
    88	4.66287	2.03056e-005
    89	4.68589	2.03071e-005
    90	4.70893	2.03086e-005
    91	4.73198	2.03101e-005
    92	4.75501	2.03117e-005
    93	4.7776	2.03138e-005
    94	4.80035	2.03157e-005
    95	4.82321	2.03175e-005
    96	4.84613	2.03191e-005
    97	4.86908	2.03206e-005
    98	4.89218	2.03221e-005
    99	4.91524	2.03236e-005
   100	4.93787	2.03257e-005
   101	4.96053	2.03278e-005


Date: Tue Mar 22 14:31:31 2022
Total elapsed time: 1.250 seconds.

tnom = 27
temp = 27
method = modified trap
totiter = 2544
traniter = 2515
tranpoints = 1139
accept = 1104
rejected = 35
matrix size = 11
fillins = 0
solver = Normal
Matrix Compiler1: 674 bytes object code size  0.1/0.1/[0.1]
Matrix Compiler2: 847 bytes object code size  0.1/0.1/[0.1]

