Circuit: * C:\Users\user\Documents\LTspiceXVII\file\Montecarlo\monte_SiC.asc

Direct Newton iteration for .op point succeeded.
.step tol1=0
.step tol1=0.01
.step tol1=0.02
.step tol1=0.03
.step tol1=0.04
.step tol1=0.05
.step tol1=0.06
.step tol1=0.07
.step tol1=0.08
.step tol1=0.09
.step tol1=0.1
.step tol1=0.11
.step tol1=0.12
.step tol1=0.13
.step tol1=0.14
.step tol1=0.15
.step tol1=0.16
.step tol1=0.17
.step tol1=0.18
.step tol1=0.19
.step tol1=0.2
.step tol1=0.21
.step tol1=0.22
.step tol1=0.23
.step tol1=0.24
.step tol1=0.25
.step tol1=0.26
.step tol1=0.27
.step tol1=0.28
.step tol1=0.29
.step tol1=0.3
.step tol1=0.31
.step tol1=0.32
.step tol1=0.33
.step tol1=0.34
.step tol1=0.35
.step tol1=0.36
.step tol1=0.37
.step tol1=0.38
.step tol1=0.39
.step tol1=0.4
.step tol1=0.41
.step tol1=0.42
.step tol1=0.43
.step tol1=0.44
.step tol1=0.45
.step tol1=0.46
.step tol1=0.47
.step tol1=0.48
.step tol1=0.49
.step tol1=0.5
.step tol1=0.51
.step tol1=0.52
.step tol1=0.53
.step tol1=0.54
.step tol1=0.55
.step tol1=0.56
.step tol1=0.57
.step tol1=0.58
.step tol1=0.59
.step tol1=0.6
.step tol1=0.61
.step tol1=0.62
.step tol1=0.63
.step tol1=0.64
.step tol1=0.65
.step tol1=0.66
.step tol1=0.67
.step tol1=0.68
.step tol1=0.69
.step tol1=0.7
.step tol1=0.71
.step tol1=0.72
.step tol1=0.73
.step tol1=0.74
.step tol1=0.75
.step tol1=0.76
.step tol1=0.77
.step tol1=0.78
.step tol1=0.79
.step tol1=0.8
.step tol1=0.81
.step tol1=0.82
.step tol1=0.83
.step tol1=0.84
.step tol1=0.85
.step tol1=0.86
.step tol1=0.87
.step tol1=0.88
.step tol1=0.89
.step tol1=0.9
.step tol1=0.91
.step tol1=0.92
.step tol1=0.93
.step tol1=0.94
.step tol1=0.95
.step tol1=0.96
.step tol1=0.97
.step tol1=0.98
.step tol1=0.99
.step tol1=1


Measurement: imax
  step	MAX(-i(v1))	FROM	TO
     1	0.998033	0	0.0001
     2	0.998033	0	0.0001
     3	0.998033	0	0.0001
     4	0.998033	0	0.0001
     5	0.998033	0	0.0001
     6	0.998033	0	0.0001
     7	0.998033	0	0.0001
     8	0.998033	0	0.0001
     9	0.998033	0	0.0001
    10	0.998033	0	0.0001
    11	0.998033	0	0.0001
    12	0.998033	0	0.0001
    13	0.998033	0	0.0001
    14	0.998033	0	0.0001
    15	0.998033	0	0.0001
    16	0.998033	0	0.0001
    17	0.998033	0	0.0001
    18	0.998033	0	0.0001
    19	0.998033	0	0.0001
    20	0.998033	0	0.0001
    21	0.998033	0	0.0001
    22	0.998033	0	0.0001
    23	0.998033	0	0.0001
    24	0.998033	0	0.0001
    25	0.998033	0	0.0001
    26	0.998033	0	0.0001
    27	0.998033	0	0.0001
    28	0.998033	0	0.0001
    29	0.998033	0	0.0001
    30	0.998033	0	0.0001
    31	0.998033	0	0.0001
    32	0.998033	0	0.0001
    33	0.998033	0	0.0001
    34	0.998033	0	0.0001
    35	0.998033	0	0.0001
    36	0.998033	0	0.0001
    37	0.998033	0	0.0001
    38	0.998033	0	0.0001
    39	0.998033	0	0.0001
    40	0.998033	0	0.0001
    41	0.998033	0	0.0001
    42	0.998033	0	0.0001
    43	0.998033	0	0.0001
    44	0.998033	0	0.0001
    45	0.998033	0	0.0001
    46	0.998034	0	0.0001
    47	0.998034	0	0.0001
    48	0.998034	0	0.0001
    49	0.998034	0	0.0001
    50	0.998034	0	0.0001
    51	0.998034	0	0.0001
    52	0.998034	0	0.0001
    53	0.998034	0	0.0001
    54	0.998033	0	0.0001
    55	0.998033	0	0.0001
    56	0.998033	0	0.0001
    57	0.998033	0	0.0001
    58	0.998033	0	0.0001
    59	0.998033	0	0.0001
    60	0.998033	0	0.0001
    61	0.998034	0	0.0001
    62	0.998034	0	0.0001
    63	0.998035	0	0.0001
    64	0.998035	0	0.0001
    65	0.998035	0	0.0001
    66	0.998035	0	0.0001
    67	0.998034	0	0.0001
    68	0.998035	0	0.0001
    69	0.998036	0	0.0001
    70	0.998036	0	0.0001
    71	0.998036	0	0.0001
    72	0.998036	0	0.0001
    73	0.998036	0	0.0001
    74	0.998034	0	0.0001
    75	0.998036	0	0.0001
    76	0.998036	0	0.0001
    77	0.998034	0	0.0001
    78	0.998034	0	0.0001
    79	0.998033	0	0.0001
    80	0.998033	0	0.0001
    81	0.998033	0	0.0001
    82	0.998033	0	0.0001
    83	0.998033	0	0.0001
    84	0.998033	0	0.0001
    85	0.998033	0	0.0001
    86	0.998034	0	0.0001
    87	0.998036	0	0.0001
    88	0.998034	0	0.0001
    89	0.998036	0	0.0001
    90	0.998034	0	0.0001
    91	0.998036	0	0.0001
    92	0.998035	0	0.0001
    93	0.998036	0	0.0001
    94	0.998035	0	0.0001
    95	0.998035	0	0.0001
    96	0.998035	0	0.0001
    97	0.998035	0	0.0001
    98	0.998035	0	0.0001
    99	0.998035	0	0.0001
   100	0.998035	0	0.0001
   101	0.998034	0	0.0001

Measurement: tr1
  step	tr1	FROM	TO
     1	1.46403e-007	2.01363e-005	2.02827e-005
     2	1.46426e-007	2.01363e-005	2.02827e-005
     3	1.46449e-007	2.01363e-005	2.02827e-005
     4	1.46472e-007	2.01363e-005	2.02828e-005
     5	1.46494e-007	2.01363e-005	2.02828e-005
     6	1.46517e-007	2.01363e-005	2.02828e-005
     7	1.46539e-007	2.01363e-005	2.02828e-005
     8	1.46562e-007	2.01363e-005	2.02829e-005
     9	1.46584e-007	2.01363e-005	2.02829e-005
    10	1.46606e-007	2.01363e-005	2.02829e-005
    11	1.46629e-007	2.01363e-005	2.0283e-005
    12	1.46651e-007	2.01363e-005	2.0283e-005
    13	1.46673e-007	2.01363e-005	2.0283e-005
    14	1.46695e-007	2.01363e-005	2.0283e-005
    15	1.46717e-007	2.01363e-005	2.02831e-005
    16	1.46739e-007	2.01363e-005	2.02831e-005
    17	1.46761e-007	2.01363e-005	2.02831e-005
    18	1.46782e-007	2.01363e-005	2.02831e-005
    19	1.46804e-007	2.01364e-005	2.02832e-005
    20	1.46826e-007	2.01364e-005	2.02832e-005
    21	1.46847e-007	2.01364e-005	2.02832e-005
    22	1.46869e-007	2.01364e-005	2.02832e-005
    23	1.4689e-007	2.01364e-005	2.02833e-005
    24	1.46912e-007	2.01364e-005	2.02833e-005
    25	1.46937e-007	2.01364e-005	2.02833e-005
    26	1.46963e-007	2.01364e-005	2.02833e-005
    27	1.46989e-007	2.01364e-005	2.02834e-005
    28	1.47014e-007	2.01364e-005	2.02834e-005
    29	1.4704e-007	2.01364e-005	2.02834e-005
    30	1.47066e-007	2.01364e-005	2.02834e-005
    31	1.47092e-007	2.01364e-005	2.02835e-005
    32	1.47117e-007	2.01364e-005	2.02835e-005
    33	1.47143e-007	2.01364e-005	2.02835e-005
    34	1.47169e-007	2.01364e-005	2.02835e-005
    35	1.47194e-007	2.01364e-005	2.02836e-005
    36	1.4722e-007	2.01364e-005	2.02836e-005
    37	1.47245e-007	2.01364e-005	2.02836e-005
    38	1.4727e-007	2.01364e-005	2.02836e-005
    39	1.47296e-007	2.01364e-005	2.02836e-005
    40	1.47321e-007	2.01363e-005	2.02837e-005
    41	1.47346e-007	2.01363e-005	2.02837e-005
    42	1.47372e-007	2.01363e-005	2.02837e-005
    43	1.47397e-007	2.01363e-005	2.02837e-005
    44	1.47422e-007	2.01363e-005	2.02838e-005
    45	1.47447e-007	2.01363e-005	2.02838e-005
    46	1.47472e-007	2.01363e-005	2.02838e-005
    47	1.47497e-007	2.01363e-005	2.02838e-005
    48	1.47522e-007	2.01363e-005	2.02839e-005
    49	1.47547e-007	2.01363e-005	2.02839e-005
    50	1.47572e-007	2.01363e-005	2.02839e-005
    51	1.47597e-007	2.01363e-005	2.02839e-005
    52	1.47622e-007	2.01363e-005	2.0284e-005
    53	1.47647e-007	2.01363e-005	2.0284e-005
    54	1.47671e-007	2.01363e-005	2.0284e-005
    55	1.47696e-007	2.01363e-005	2.0284e-005
    56	1.47721e-007	2.01363e-005	2.0284e-005
    57	1.47745e-007	2.01363e-005	2.02841e-005
    58	1.4777e-007	2.01363e-005	2.02841e-005
    59	1.47794e-007	2.01363e-005	2.02841e-005
    60	1.47819e-007	2.01363e-005	2.02841e-005
    61	1.4773e-007	2.01363e-005	2.0284e-005
    62	1.47754e-007	2.01363e-005	2.02841e-005
    63	1.47777e-007	2.01363e-005	2.02841e-005
    64	1.47801e-007	2.01363e-005	2.02841e-005
    65	1.47824e-007	2.01363e-005	2.02841e-005
    66	1.47847e-007	2.01363e-005	2.02841e-005
    67	1.4787e-007	2.01363e-005	2.02842e-005
    68	1.47894e-007	2.01363e-005	2.02842e-005
    69	1.47917e-007	2.01363e-005	2.02842e-005
    70	1.47941e-007	2.01363e-005	2.02842e-005
    71	1.47964e-007	2.01363e-005	2.02843e-005
    72	1.47987e-007	2.01363e-005	2.02843e-005
    73	1.4801e-007	2.01363e-005	2.02843e-005
    74	1.48032e-007	2.01363e-005	2.02843e-005
    75	1.48056e-007	2.01363e-005	2.02843e-005
    76	1.48082e-007	2.01363e-005	2.02844e-005
    77	1.48111e-007	2.01363e-005	2.02844e-005
    78	1.4814e-007	2.01363e-005	2.02844e-005
    79	1.4817e-007	2.01363e-005	2.02844e-005
    80	1.48199e-007	2.01363e-005	2.02845e-005
    81	1.48229e-007	2.01363e-005	2.02845e-005
    82	1.48258e-007	2.01363e-005	2.02845e-005
    83	1.48287e-007	2.01363e-005	2.02845e-005
    84	1.48316e-007	2.01363e-005	2.02846e-005
    85	1.48345e-007	2.01363e-005	2.02846e-005
    86	1.48375e-007	2.01362e-005	2.02846e-005
    87	1.48405e-007	2.01362e-005	2.02847e-005
    88	1.48433e-007	2.01362e-005	2.02847e-005
    89	1.48916e-007	2.01357e-005	2.02846e-005
    90	1.48939e-007	2.01357e-005	2.02846e-005
    91	1.48964e-007	2.01357e-005	2.02846e-005
    92	1.48987e-007	2.01357e-005	2.02847e-005
    93	1.49011e-007	2.01357e-005	2.02847e-005
    94	1.49035e-007	2.01357e-005	2.02847e-005
    95	1.49058e-007	2.01357e-005	2.02848e-005
    96	1.49082e-007	2.01357e-005	2.02848e-005
    97	1.49105e-007	2.01357e-005	2.02848e-005
    98	1.49129e-007	2.01357e-005	2.02848e-005
    99	1.49152e-007	2.01357e-005	2.02849e-005
   100	1.49175e-007	2.01357e-005	2.02849e-005
   101	1.49198e-007	2.01357e-005	2.02849e-005

Measurement: tr2
  step	tr2	FROM	TO
     1	4.44971e-007	6.13959e-005	6.18409e-005
     2	4.44905e-007	6.13958e-005	6.18407e-005
     3	4.44839e-007	6.13957e-005	6.18405e-005
     4	4.43511e-007	6.13955e-005	6.1839e-005
     5	4.43445e-007	6.13954e-005	6.18389e-005
     6	4.43379e-007	6.13953e-005	6.18387e-005
     7	4.44564e-007	6.13952e-005	6.18397e-005
     8	4.44492e-007	6.13951e-005	6.18396e-005
     9	4.4442e-007	6.13949e-005	6.18394e-005
    10	4.44347e-007	6.13948e-005	6.18392e-005
    11	4.44273e-007	6.13947e-005	6.1839e-005
    12	4.44198e-007	6.13946e-005	6.18388e-005
    13	4.44122e-007	6.13945e-005	6.18386e-005
    14	4.44045e-007	6.13943e-005	6.18384e-005
    15	4.43968e-007	6.13942e-005	6.18382e-005
    16	4.43889e-007	6.13941e-005	6.1838e-005
    17	4.4381e-007	6.1394e-005	6.18378e-005
    18	4.43713e-007	6.13938e-005	6.18375e-005
    19	4.43633e-007	6.13937e-005	6.18373e-005
    20	4.43554e-007	6.13936e-005	6.18371e-005
    21	4.43475e-007	6.13935e-005	6.1837e-005
    22	4.43395e-007	6.13934e-005	6.18368e-005
    23	4.43314e-007	6.13932e-005	6.18366e-005
    24	4.43232e-007	6.13931e-005	6.18364e-005
    25	4.43149e-007	6.1393e-005	6.18362e-005
    26	4.43066e-007	6.13929e-005	6.1836e-005
    27	4.42982e-007	6.13928e-005	6.18358e-005
    28	4.42898e-007	6.13927e-005	6.18356e-005
    29	4.42812e-007	6.13925e-005	6.18354e-005
    30	4.42727e-007	6.13924e-005	6.18352e-005
    31	4.42641e-007	6.13923e-005	6.1835e-005
    32	4.42554e-007	6.13922e-005	6.18348e-005
    33	4.42467e-007	6.13921e-005	6.18346e-005
    34	4.42356e-007	6.13919e-005	6.18343e-005
    35	4.42268e-007	6.13918e-005	6.18341e-005
    36	4.4218e-007	6.13917e-005	6.18339e-005
    37	4.42091e-007	6.13916e-005	6.18337e-005
    38	4.42001e-007	6.13915e-005	6.18335e-005
    39	4.4191e-007	6.13913e-005	6.18333e-005
    40	4.41818e-007	6.13912e-005	6.1833e-005
    41	4.41883e-007	6.13911e-005	6.1833e-005
    42	4.41611e-007	6.1391e-005	6.18326e-005
    43	4.41296e-007	6.13909e-005	6.18322e-005
    44	4.41417e-007	6.13908e-005	6.18322e-005
    45	4.41297e-007	6.13907e-005	6.1832e-005
    46	4.34355e-007	6.13913e-005	6.18257e-005
    47	4.47501e-007	6.13909e-005	6.18384e-005
    48	4.3729e-007	6.13906e-005	6.18279e-005
    49	4.41452e-007	6.13907e-005	6.18321e-005
    50	4.31513e-007	6.13906e-005	6.18221e-005
    51	4.38716e-007	6.13908e-005	6.18295e-005
    52	4.41792e-007	6.13903e-005	6.18321e-005
    53	4.3704e-007	6.139e-005	6.18271e-005
    54	4.41344e-007	6.13897e-005	6.18311e-005
    55	4.41561e-007	6.13896e-005	6.18312e-005
    56	4.4176e-007	6.13895e-005	6.18313e-005
    57	4.41958e-007	6.13894e-005	6.18313e-005
    58	4.4076e-007	6.13892e-005	6.183e-005
    59	4.41155e-007	6.13891e-005	6.18303e-005
    60	4.41543e-007	6.1389e-005	6.18306e-005
    61	4.38796e-007	6.13896e-005	6.18284e-005
    62	4.32285e-007	6.13891e-005	6.18214e-005
    63	4.39142e-007	6.13893e-005	6.18284e-005
    64	4.39497e-007	6.13894e-005	6.18289e-005
    65	4.44766e-007	6.13891e-005	6.18339e-005
    66	4.39293e-007	6.1389e-005	6.18283e-005
    67	4.3824e-007	6.1389e-005	6.18272e-005
    68	4.41432e-007	6.13883e-005	6.18298e-005
    69	4.37492e-007	6.13879e-005	6.18254e-005
    70	4.38081e-007	6.13878e-005	6.18259e-005
    71	4.39111e-007	6.13877e-005	6.18268e-005
    72	4.40301e-007	6.13877e-005	6.1828e-005
    73	4.43325e-007	6.1388e-005	6.18313e-005
    74	4.34588e-007	6.1388e-005	6.18226e-005
    75	4.37761e-007	6.1388e-005	6.18258e-005
    76	4.41445e-007	6.13879e-005	6.18293e-005
    77	4.49626e-007	6.13881e-005	6.18377e-005
    78	4.35862e-007	6.13876e-005	6.18235e-005
    79	4.43207e-007	6.13871e-005	6.18303e-005
    80	4.46727e-007	6.13871e-005	6.18338e-005
    81	4.41308e-007	6.13873e-005	6.18286e-005
    82	4.38934e-007	6.13872e-005	6.18261e-005
    83	4.36654e-007	6.13868e-005	6.18235e-005
    84	4.31101e-007	6.13864e-005	6.18175e-005
    85	4.38374e-007	6.13864e-005	6.18247e-005
    86	4.40821e-007	6.13867e-005	6.18276e-005
    87	4.31065e-007	6.13866e-005	6.18176e-005
    88	4.33261e-007	6.13863e-005	6.18196e-005
    89	4.36545e-007	6.13864e-005	6.18229e-005
    90	4.35212e-007	6.13864e-005	6.18216e-005
    91	4.43936e-007	6.13865e-005	6.18304e-005
    92	4.33034e-007	6.13865e-005	6.18195e-005
    93	4.3296e-007	6.13853e-005	6.18183e-005
    94	4.32225e-007	6.13852e-005	6.18175e-005
    95	4.35476e-007	6.13852e-005	6.18206e-005
    96	4.34079e-007	6.13857e-005	6.18198e-005
    97	4.34288e-007	6.13856e-005	6.18199e-005
    98	4.342e-007	6.13855e-005	6.18197e-005
    99	4.39392e-007	6.13856e-005	6.1825e-005
   100	4.39366e-007	6.13856e-005	6.1825e-005
   101	4.35311e-007	6.13852e-005	6.18205e-005

Measurement: vth
  step	v(n004)	at
     1	2.66435	2.01953e-005
     2	2.66475	2.01953e-005
     3	2.66515	2.01953e-005
     4	2.66555	2.01953e-005
     5	2.66594	2.01954e-005
     6	2.66634	2.01954e-005
     7	2.66673	2.01954e-005
     8	2.66713	2.01954e-005
     9	2.66752	2.01954e-005
    10	2.66792	2.01954e-005
    11	2.66831	2.01954e-005
    12	2.6687	2.01955e-005
    13	2.6691	2.01955e-005
    14	2.66949	2.01955e-005
    15	2.66988	2.01955e-005
    16	2.67027	2.01955e-005
    17	2.67066	2.01955e-005
    18	2.67105	2.01955e-005
    19	2.67144	2.01956e-005
    20	2.67183	2.01956e-005
    21	2.67222	2.01956e-005
    22	2.67261	2.01956e-005
    23	2.673	2.01956e-005
    24	2.67338	2.01956e-005
    25	2.67377	2.01956e-005
    26	2.67416	2.01957e-005
    27	2.67454	2.01957e-005
    28	2.67493	2.01957e-005
    29	2.67531	2.01957e-005
    30	2.6757	2.01957e-005
    31	2.67608	2.01957e-005
    32	2.67647	2.01957e-005
    33	2.67685	2.01958e-005
    34	2.67723	2.01958e-005
    35	2.67762	2.01958e-005
    36	2.678	2.01958e-005
    37	2.67838	2.01958e-005
    38	2.67876	2.01958e-005
    39	2.67914	2.01958e-005
    40	2.67953	2.01959e-005
    41	2.67991	2.01959e-005
    42	2.68029	2.01959e-005
    43	2.68066	2.01959e-005
    44	2.68104	2.01959e-005
    45	2.68142	2.01959e-005
    46	2.6818	2.01959e-005
    47	2.68218	2.01959e-005
    48	2.68256	2.0196e-005
    49	2.68293	2.0196e-005
    50	2.68331	2.0196e-005
    51	2.68369	2.0196e-005
    52	2.68406	2.0196e-005
    53	2.68444	2.0196e-005
    54	2.68481	2.0196e-005
    55	2.68519	2.0196e-005
    56	2.68556	2.01961e-005
    57	2.68594	2.01961e-005
    58	2.68631	2.01961e-005
    59	2.68668	2.01961e-005
    60	2.68706	2.01961e-005
    61	2.68736	2.01961e-005
    62	2.68773	2.01962e-005
    63	2.6881	2.01962e-005
    64	2.68847	2.01962e-005
    65	2.68885	2.01962e-005
    66	2.68922	2.01962e-005
    67	2.68959	2.01962e-005
    68	2.68995	2.01962e-005
    69	2.69032	2.01962e-005
    70	2.69069	2.01963e-005
    71	2.69106	2.01963e-005
    72	2.69143	2.01963e-005
    73	2.6918	2.01963e-005
    74	2.69216	2.01963e-005
    75	2.69253	2.01963e-005
    76	2.6929	2.01963e-005
    77	2.69326	2.01963e-005
    78	2.69363	2.01963e-005
    79	2.69399	2.01964e-005
    80	2.69436	2.01964e-005
    81	2.69472	2.01964e-005
    82	2.69509	2.01964e-005
    83	2.69545	2.01964e-005
    84	2.69582	2.01964e-005
    85	2.69618	2.01964e-005
    86	2.69654	2.01964e-005
    87	2.69691	2.01965e-005
    88	2.69727	2.01965e-005
    89	2.69795	2.01963e-005
    90	2.69831	2.01963e-005
    91	2.69867	2.01963e-005
    92	2.69903	2.01963e-005
    93	2.69938	2.01963e-005
    94	2.69974	2.01963e-005
    95	2.7001	2.01963e-005
    96	2.70046	2.01964e-005
    97	2.70081	2.01964e-005
    98	2.70117	2.01964e-005
    99	2.70153	2.01964e-005
   100	2.70188	2.01964e-005
   101	2.70224	2.01964e-005


Date: Tue Mar 22 14:30:27 2022
Total elapsed time: 1.136 seconds.

tnom = 27
temp = 27
method = modified trap
totiter = 2404
traniter = 2375
tranpoints = 1148
accept = 1115
rejected = 33
matrix size = 11
fillins = 0
solver = Normal
Matrix Compiler1: 674 bytes object code size  0.1/0.1/[0.1]
Matrix Compiler2: off  [0.1]/0.1/0.1

