Circuit: * C:\Users\user\Documents\LTspiceXVII\file\Montecarlo\monte_SiC.asc

Direct Newton iteration for .op point succeeded.
.step tol1=0
.step tol1=0.01
.step tol1=0.02
.step tol1=0.03
.step tol1=0.04
.step tol1=0.05
.step tol1=0.06
.step tol1=0.07
.step tol1=0.08
.step tol1=0.09
.step tol1=0.1
.step tol1=0.11
.step tol1=0.12
.step tol1=0.13
.step tol1=0.14
.step tol1=0.15
.step tol1=0.16
.step tol1=0.17
.step tol1=0.18
.step tol1=0.19
.step tol1=0.2
.step tol1=0.21
.step tol1=0.22
.step tol1=0.23
.step tol1=0.24
.step tol1=0.25
.step tol1=0.26
.step tol1=0.27
.step tol1=0.28
.step tol1=0.29
.step tol1=0.3
.step tol1=0.31
.step tol1=0.32
.step tol1=0.33
.step tol1=0.34
.step tol1=0.35
.step tol1=0.36
.step tol1=0.37
.step tol1=0.38
.step tol1=0.39
.step tol1=0.4
.step tol1=0.41
.step tol1=0.42
.step tol1=0.43
.step tol1=0.44
.step tol1=0.45
.step tol1=0.46
.step tol1=0.47
.step tol1=0.48
.step tol1=0.49
.step tol1=0.5
.step tol1=0.51
.step tol1=0.52
.step tol1=0.53
.step tol1=0.54
.step tol1=0.55
.step tol1=0.56
.step tol1=0.57
.step tol1=0.58
.step tol1=0.59
.step tol1=0.6
.step tol1=0.61
.step tol1=0.62
.step tol1=0.63
.step tol1=0.64
.step tol1=0.65
.step tol1=0.66
.step tol1=0.67
.step tol1=0.68
.step tol1=0.69
.step tol1=0.7
.step tol1=0.71
.step tol1=0.72
.step tol1=0.73
.step tol1=0.74
.step tol1=0.75
.step tol1=0.76
.step tol1=0.77
.step tol1=0.78
.step tol1=0.79
.step tol1=0.8
.step tol1=0.81
.step tol1=0.82
.step tol1=0.83
.step tol1=0.84
.step tol1=0.85
.step tol1=0.86
.step tol1=0.87
.step tol1=0.88
.step tol1=0.89
.step tol1=0.9
.step tol1=0.91
.step tol1=0.92
.step tol1=0.93
.step tol1=0.94
.step tol1=0.95
.step tol1=0.96
.step tol1=0.97
.step tol1=0.98
.step tol1=0.99
.step tol1=1


Measurement: imax
  step	MAX(-i(v1))	FROM	TO
     1	9.80646	0	0.0001
     2	9.80646	0	0.0001
     3	9.80646	0	0.0001
     4	9.80646	0	0.0001
     5	9.80646	0	0.0001
     6	9.80646	0	0.0001
     7	9.80643	0	0.0001
     8	9.80643	0	0.0001
     9	9.80646	0	0.0001
    10	9.80643	0	0.0001
    11	9.80643	0	0.0001
    12	9.80643	0	0.0001
    13	9.80643	0	0.0001
    14	9.80643	0	0.0001
    15	9.80643	0	0.0001
    16	9.80646	0	0.0001
    17	9.80646	0	0.0001
    18	9.80646	0	0.0001
    19	9.80643	0	0.0001
    20	9.80645	0	0.0001
    21	9.80645	0	0.0001
    22	9.80645	0	0.0001
    23	9.80645	0	0.0001
    24	9.80645	0	0.0001
    25	9.80645	0	0.0001
    26	9.80645	0	0.0001
    27	9.80645	0	0.0001
    28	9.80645	0	0.0001
    29	9.80645	0	0.0001
    30	9.80645	0	0.0001
    31	9.80645	0	0.0001
    32	9.80645	0	0.0001
    33	9.80645	0	0.0001
    34	9.80645	0	0.0001
    35	9.80645	0	0.0001
    36	9.80645	0	0.0001
    37	9.80645	0	0.0001
    38	9.80645	0	0.0001
    39	9.80645	0	0.0001
    40	9.80645	0	0.0001
    41	9.80645	0	0.0001
    42	9.80645	0	0.0001
    43	9.80645	0	0.0001
    44	9.80643	0	0.0001
    45	9.80643	0	0.0001
    46	9.80643	0	0.0001
    47	9.80643	0	0.0001
    48	9.80643	0	0.0001
    49	9.80645	0	0.0001
    50	9.80644	0	0.0001
    51	9.80643	0	0.0001
    52	9.80643	0	0.0001
    53	9.80643	0	0.0001
    54	9.80643	0	0.0001
    55	9.80643	0	0.0001
    56	9.80643	0	0.0001
    57	9.80643	0	0.0001
    58	9.80645	0	0.0001
    59	9.80643	0	0.0001
    60	9.80647	0	0.0001
    61	9.80647	0	0.0001
    62	9.80647	0	0.0001
    63	9.80647	0	0.0001
    64	9.80647	0	0.0001
    65	9.80646	0	0.0001
    66	9.80646	0	0.0001
    67	9.80646	0	0.0001
    68	9.80643	0	0.0001
    69	9.80643	0	0.0001
    70	9.80646	0	0.0001
    71	9.80646	0	0.0001
    72	9.80646	0	0.0001
    73	9.80643	0	0.0001
    74	9.80646	0	0.0001
    75	9.80643	0	0.0001
    76	9.80643	0	0.0001
    77	9.80643	0	0.0001
    78	9.80643	0	0.0001
    79	9.80643	0	0.0001
    80	9.80643	0	0.0001
    81	9.80643	0	0.0001
    82	9.80643	0	0.0001
    83	9.80643	0	0.0001
    84	9.80643	0	0.0001
    85	9.80643	0	0.0001
    86	9.80643	0	0.0001
    87	9.80643	0	0.0001
    88	9.80643	0	0.0001
    89	9.80643	0	0.0001
    90	9.80643	0	0.0001
    91	9.80643	0	0.0001
    92	9.80643	0	0.0001
    93	9.80643	0	0.0001
    94	9.80643	0	0.0001
    95	9.80644	0	0.0001
    96	9.80643	0	0.0001
    97	9.80643	0	0.0001
    98	9.80643	0	0.0001
    99	9.80643	0	0.0001
   100	9.80643	0	0.0001
   101	9.80643	0	0.0001

Measurement: tr1
  step	tr1	FROM	TO
     1	1.8838e-007	2.01446e-005	2.0333e-005
     2	1.88991e-007	2.01447e-005	2.03337e-005
     3	1.89597e-007	2.01447e-005	2.03343e-005
     4	1.90198e-007	2.01448e-005	2.0335e-005
     5	1.90794e-007	2.01449e-005	2.03357e-005
     6	1.91385e-007	2.01449e-005	2.03363e-005
     7	1.9197e-007	2.0145e-005	2.0337e-005
     8	1.92552e-007	2.01451e-005	2.03376e-005
     9	1.93131e-007	2.01452e-005	2.03383e-005
    10	1.93703e-007	2.01452e-005	2.03389e-005
    11	1.94271e-007	2.01453e-005	2.03396e-005
    12	1.94836e-007	2.01454e-005	2.03402e-005
    13	1.95396e-007	2.01454e-005	2.03408e-005
    14	1.95952e-007	2.01455e-005	2.03415e-005
    15	1.96504e-007	2.01456e-005	2.03421e-005
    16	1.97055e-007	2.01456e-005	2.03427e-005
    17	1.97599e-007	2.01457e-005	2.03433e-005
    18	1.9814e-007	2.01458e-005	2.03439e-005
    19	1.98675e-007	2.01459e-005	2.03445e-005
    20	1.99209e-007	2.01459e-005	2.03451e-005
    21	1.99738e-007	2.0146e-005	2.03457e-005
    22	2.00264e-007	2.01461e-005	2.03463e-005
    23	2.00786e-007	2.01461e-005	2.03469e-005
    24	2.01306e-007	2.01462e-005	2.03475e-005
    25	2.01821e-007	2.01463e-005	2.03481e-005
    26	2.02334e-007	2.01463e-005	2.03487e-005
    27	2.02843e-007	2.01464e-005	2.03492e-005
    28	2.0335e-007	2.01465e-005	2.03498e-005
    29	2.03853e-007	2.01465e-005	2.03504e-005
    30	2.04353e-007	2.01466e-005	2.03509e-005
    31	2.0485e-007	2.01466e-005	2.03515e-005
    32	2.05344e-007	2.01467e-005	2.03521e-005
    33	2.05836e-007	2.01468e-005	2.03526e-005
    34	2.06325e-007	2.01468e-005	2.03532e-005
    35	2.0681e-007	2.01469e-005	2.03537e-005
    36	2.07293e-007	2.0147e-005	2.03543e-005
    37	2.07772e-007	2.0147e-005	2.03548e-005
    38	2.08248e-007	2.01471e-005	2.03553e-005
    39	2.08722e-007	2.01472e-005	2.03559e-005
    40	2.09192e-007	2.01472e-005	2.03564e-005
    41	2.0966e-007	2.01473e-005	2.03569e-005
    42	2.10125e-007	2.01474e-005	2.03575e-005
    43	2.1055e-007	2.01474e-005	2.0358e-005
    44	2.11005e-007	2.01475e-005	2.03585e-005
    45	2.11458e-007	2.01475e-005	2.0359e-005
    46	2.11928e-007	2.01476e-005	2.03595e-005
    47	2.12372e-007	2.01477e-005	2.036e-005
    48	2.12811e-007	2.01477e-005	2.03605e-005
    49	2.13248e-007	2.01478e-005	2.0361e-005
    50	2.13682e-007	2.01479e-005	2.03615e-005
    51	2.14112e-007	2.01479e-005	2.0362e-005
    52	2.1454e-007	2.0148e-005	2.03625e-005
    53	2.14966e-007	2.0148e-005	2.0363e-005
    54	2.15389e-007	2.01481e-005	2.03635e-005
    55	2.15801e-007	2.01482e-005	2.0364e-005
    56	2.1622e-007	2.01482e-005	2.03644e-005
    57	2.16635e-007	2.01483e-005	2.03649e-005
    58	2.17049e-007	2.01483e-005	2.03654e-005
    59	2.18651e-007	2.01484e-005	2.03671e-005
    60	2.19066e-007	2.01485e-005	2.03675e-005
    61	2.19476e-007	2.01485e-005	2.0368e-005
    62	2.19884e-007	2.01486e-005	2.03685e-005
    63	2.20289e-007	2.01486e-005	2.03689e-005
    64	2.20692e-007	2.01487e-005	2.03694e-005
    65	2.21093e-007	2.01488e-005	2.03699e-005
    66	2.21491e-007	2.01488e-005	2.03703e-005
    67	2.21887e-007	2.01489e-005	2.03708e-005
    68	2.2228e-007	2.01489e-005	2.03712e-005
    69	2.22672e-007	2.0149e-005	2.03717e-005
    70	2.23064e-007	2.01491e-005	2.03721e-005
    71	2.23451e-007	2.01491e-005	2.03726e-005
    72	2.23837e-007	2.01492e-005	2.0373e-005
    73	2.2422e-007	2.01492e-005	2.03735e-005
    74	2.24604e-007	2.01493e-005	2.03739e-005
    75	2.24983e-007	2.01494e-005	2.03743e-005
    76	2.25361e-007	2.01494e-005	2.03748e-005
    77	2.25738e-007	2.01495e-005	2.03752e-005
    78	2.26113e-007	2.01495e-005	2.03756e-005
    79	2.26485e-007	2.01496e-005	2.03761e-005
    80	2.26856e-007	2.01496e-005	2.03765e-005
    81	2.27225e-007	2.01497e-005	2.03769e-005
    82	2.27592e-007	2.01498e-005	2.03773e-005
    83	2.27957e-007	2.01498e-005	2.03778e-005
    84	2.28321e-007	2.01499e-005	2.03782e-005
    85	2.28683e-007	2.01499e-005	2.03786e-005
    86	2.29043e-007	2.015e-005	2.0379e-005
    87	2.29392e-007	2.015e-005	2.03794e-005
    88	2.29749e-007	2.01501e-005	2.03798e-005
    89	2.30104e-007	2.01501e-005	2.03802e-005
    90	2.30457e-007	2.01502e-005	2.03807e-005
    91	2.30809e-007	2.01503e-005	2.03811e-005
    92	2.31159e-007	2.01503e-005	2.03815e-005
    93	2.31508e-007	2.01504e-005	2.03819e-005
    94	2.31855e-007	2.01504e-005	2.03823e-005
    95	2.322e-007	2.01505e-005	2.03827e-005
    96	2.32544e-007	2.01505e-005	2.03831e-005
    97	2.32893e-007	2.01506e-005	2.03835e-005
    98	2.33242e-007	2.01506e-005	2.03839e-005
    99	2.33589e-007	2.01507e-005	2.03843e-005
   100	2.33935e-007	2.01507e-005	2.03847e-005
   101	2.34279e-007	2.01508e-005	2.0385e-005

Measurement: tr2
  step	tr2	FROM	TO
     1	4.24943e-007	6.12087e-005	6.16336e-005
     2	4.26008e-007	6.12037e-005	6.16297e-005
     3	4.22308e-007	6.11984e-005	6.16207e-005
     4	4.23483e-007	6.11932e-005	6.16167e-005
     5	4.23342e-007	6.1188e-005	6.16114e-005
     6	4.24782e-007	6.11835e-005	6.16083e-005
     7	4.29205e-007	6.11788e-005	6.1608e-005
     8	4.27593e-007	6.11738e-005	6.16014e-005
     9	4.26798e-007	6.11692e-005	6.1596e-005
    10	4.3019e-007	6.11648e-005	6.1595e-005
    11	4.32231e-007	6.11604e-005	6.15926e-005
    12	4.38297e-007	6.11559e-005	6.15942e-005
    13	4.39456e-007	6.11516e-005	6.1591e-005
    14	4.4059e-007	6.11473e-005	6.15878e-005
    15	4.38847e-007	6.11431e-005	6.15819e-005
    16	4.42372e-007	6.1139e-005	6.15814e-005
    17	4.34738e-007	6.11346e-005	6.15694e-005
    18	4.40018e-007	6.11308e-005	6.15708e-005
    19	4.45944e-007	6.1127e-005	6.15729e-005
    20	4.46959e-007	6.11232e-005	6.15702e-005
    21	4.42475e-007	6.11193e-005	6.15618e-005
    22	4.49314e-007	6.11156e-005	6.15649e-005
    23	4.43571e-007	6.11117e-005	6.15553e-005
    24	4.50385e-007	6.11084e-005	6.15588e-005
    25	4.51932e-007	6.11048e-005	6.15567e-005
    26	4.43863e-007	6.11011e-005	6.15449e-005
    27	4.49402e-007	6.10978e-005	6.15472e-005
    28	4.48411e-007	6.10943e-005	6.15427e-005
    29	4.46682e-007	6.10909e-005	6.15376e-005
    30	4.51367e-007	6.10877e-005	6.15391e-005
    31	4.52873e-007	6.10846e-005	6.15375e-005
    32	4.53634e-007	6.10815e-005	6.15351e-005
    33	4.54557e-007	6.10783e-005	6.15329e-005
    34	4.55481e-007	6.10753e-005	6.15308e-005
    35	4.54895e-007	6.10722e-005	6.15271e-005
    36	4.57128e-007	6.10693e-005	6.15264e-005
    37	4.5427e-007	6.10662e-005	6.15205e-005
    38	4.55187e-007	6.10632e-005	6.15184e-005
    39	4.56278e-007	6.10605e-005	6.15167e-005
    40	4.59851e-007	6.10577e-005	6.15176e-005
    41	4.63638e-007	6.10549e-005	6.15186e-005
    42	4.66791e-007	6.10523e-005	6.15191e-005
    43	4.62311e-007	6.10493e-005	6.15117e-005
    44	4.66932e-007	6.1047e-005	6.1514e-005
    45	4.66384e-007	6.10445e-005	6.15109e-005
    46	4.67859e-007	6.10418e-005	6.15096e-005
    47	4.67039e-007	6.10392e-005	6.15063e-005
    48	4.67986e-007	6.10367e-005	6.15047e-005
    49	4.68462e-007	6.10338e-005	6.15022e-005
    50	4.6972e-007	6.10316e-005	6.15013e-005
    51	4.77275e-007	6.10294e-005	6.15067e-005
    52	4.72384e-007	6.10267e-005	6.1499e-005
    53	4.72975e-007	6.10243e-005	6.14973e-005
    54	4.73626e-007	6.10219e-005	6.14955e-005
    55	4.82059e-007	6.10194e-005	6.15014e-005
    56	4.75443e-007	6.10175e-005	6.1493e-005
    57	4.74766e-007	6.10153e-005	6.149e-005
    58	4.76214e-007	6.10129e-005	6.14892e-005
    59	4.77413e-007	6.1011e-005	6.14884e-005
    60	4.78077e-007	6.10088e-005	6.14869e-005
    61	4.87435e-007	6.10065e-005	6.14939e-005
    62	4.81149e-007	6.10046e-005	6.14858e-005
    63	4.86678e-007	6.10023e-005	6.14889e-005
    64	4.8154e-007	6.10001e-005	6.14817e-005
    65	4.87001e-007	6.09982e-005	6.14852e-005
    66	4.89853e-007	6.09961e-005	6.1486e-005
    67	4.90492e-007	6.09944e-005	6.14849e-005
    68	4.92208e-007	6.09924e-005	6.14846e-005
    69	4.93655e-007	6.09907e-005	6.14843e-005
    70	4.9388e-007	6.09886e-005	6.14825e-005
    71	4.93838e-007	6.09868e-005	6.14806e-005
    72	4.9361e-007	6.09848e-005	6.14784e-005
    73	4.91964e-007	6.09834e-005	6.14753e-005
    74	4.89808e-007	6.09812e-005	6.1471e-005
    75	4.94196e-007	6.09794e-005	6.14736e-005
    76	4.94892e-007	6.09777e-005	6.14725e-005
    77	5.01129e-007	6.09759e-005	6.1477e-005
    78	4.96484e-007	6.0974e-005	6.14705e-005
    79	5.01332e-007	6.09727e-005	6.1474e-005
    80	5.03516e-007	6.09707e-005	6.14742e-005
    81	4.99223e-007	6.09692e-005	6.14684e-005
    82	5.0492e-007	6.09672e-005	6.14721e-005
    83	5.05831e-007	6.09655e-005	6.14714e-005
    84	5.06729e-007	6.09639e-005	6.14707e-005
    85	5.07626e-007	6.09623e-005	6.147e-005
    86	5.08512e-007	6.09608e-005	6.14693e-005
    87	5.09384e-007	6.09592e-005	6.14686e-005
    88	5.10243e-007	6.09577e-005	6.14679e-005
    89	5.1109e-007	6.09561e-005	6.14672e-005
    90	5.11927e-007	6.09546e-005	6.14665e-005
    91	5.12758e-007	6.09531e-005	6.14659e-005
    92	5.07893e-007	6.09516e-005	6.14595e-005
    93	5.08933e-007	6.09501e-005	6.1459e-005
    94	5.1048e-007	6.09486e-005	6.14591e-005
    95	5.15008e-007	6.09476e-005	6.14626e-005
    96	5.16221e-007	6.09457e-005	6.14619e-005
    97	5.17648e-007	6.09443e-005	6.14619e-005
    98	5.13431e-007	6.09429e-005	6.14563e-005
    99	5.18938e-007	6.09416e-005	6.14606e-005
   100	5.19047e-007	6.09403e-005	6.14593e-005
   101	5.19789e-007	6.09389e-005	6.14587e-005

Measurement: vth
  step	v(n004)	at
     1	1.88283	2.01041e-005
     2	1.88267	2.01041e-005
     3	1.88251	2.01041e-005
     4	1.88236	2.01041e-005
     5	1.88221	2.01042e-005
     6	1.88207	2.01042e-005
     7	1.88193	2.01042e-005
     8	1.88179	2.01042e-005
     9	1.88166	2.01042e-005
    10	1.88153	2.01042e-005
    11	1.88141	2.01042e-005
    12	1.88129	2.01042e-005
    13	1.88117	2.01042e-005
    14	1.88106	2.01042e-005
    15	1.88095	2.01043e-005
    16	1.88084	2.01043e-005
    17	1.88074	2.01043e-005
    18	1.88064	2.01043e-005
    19	1.88055	2.01043e-005
    20	1.88046	2.01043e-005
    21	1.88037	2.01043e-005
    22	1.88029	2.01043e-005
    23	1.88021	2.01043e-005
    24	1.88014	2.01044e-005
    25	1.88006	2.01044e-005
    26	1.87999	2.01044e-005
    27	1.87993	2.01044e-005
    28	1.87987	2.01044e-005
    29	1.87981	2.01044e-005
    30	1.87975	2.01044e-005
    31	1.8797	2.01044e-005
    32	1.87966	2.01044e-005
    33	1.87961	2.01045e-005
    34	1.87957	2.01045e-005
    35	1.87953	2.01045e-005
    36	1.8795	2.01045e-005
    37	1.87947	2.01045e-005
    38	1.87944	2.01045e-005
    39	1.87942	2.01045e-005
    40	1.87939	2.01045e-005
    41	1.87938	2.01046e-005
    42	1.87936	2.01046e-005
    43	1.87935	2.01046e-005
    44	1.87934	2.01046e-005
    45	1.87934	2.01046e-005
    46	1.87934	2.01046e-005
    47	1.87934	2.01046e-005
    48	1.87934	2.01046e-005
    49	1.87935	2.01047e-005
    50	1.87936	2.01047e-005
    51	1.87938	2.01047e-005
    52	1.87939	2.01047e-005
    53	1.87941	2.01047e-005
    54	1.87944	2.01047e-005
    55	1.87946	2.01047e-005
    56	1.87949	2.01047e-005
    57	1.87953	2.01048e-005
    58	1.87956	2.01048e-005
    59	1.8796	2.01048e-005
    60	1.87964	2.01048e-005
    61	1.87969	2.01048e-005
    62	1.87974	2.01048e-005
    63	1.87979	2.01048e-005
    64	1.87984	2.01049e-005
    65	1.8799	2.01049e-005
    66	1.87996	2.01049e-005
    67	1.88002	2.01049e-005
    68	1.88009	2.01049e-005
    69	1.88015	2.01049e-005
    70	1.88023	2.01049e-005
    71	1.8803	2.0105e-005
    72	1.88038	2.0105e-005
    73	1.88046	2.0105e-005
    74	1.88054	2.0105e-005
    75	1.88063	2.0105e-005
    76	1.88072	2.0105e-005
    77	1.88081	2.0105e-005
    78	1.8809	2.01051e-005
    79	1.881	2.01051e-005
    80	1.8811	2.01051e-005
    81	1.88121	2.01051e-005
    82	1.88131	2.01051e-005
    83	1.88142	2.01051e-005
    84	1.88153	2.01051e-005
    85	1.88165	2.01052e-005
    86	1.88176	2.01052e-005
    87	1.88188	2.01052e-005
    88	1.88201	2.01052e-005
    89	1.88213	2.01052e-005
    90	1.88226	2.01052e-005
    91	1.88239	2.01052e-005
    92	1.88253	2.01053e-005
    93	1.88266	2.01053e-005
    94	1.8828	2.01053e-005
    95	1.88295	2.01053e-005
    96	1.88309	2.01053e-005
    97	1.88324	2.01053e-005
    98	1.88339	2.01054e-005
    99	1.88354	2.01054e-005
   100	1.8837	2.01054e-005
   101	1.88386	2.01054e-005


Date: Wed Mar 23 09:32:56 2022
Total elapsed time: 2.023 seconds.

tnom = 27
temp = 27
method = modified trap
totiter = 2309
traniter = 2279
tranpoints = 1110
accept = 1090
rejected = 20
matrix size = 11
fillins = 0
solver = Normal
Matrix Compiler1: 674 bytes object code size  0.1/0.1/[0.1]
Matrix Compiler2: off  [0.1]/0.1/0.1

