Circuit: * C:\Users\user\Documents\LTspiceXVII\file\Montecarlo\monte_SiC.asc

Direct Newton iteration for .op point succeeded.
.step tol1=0
.step tol1=0.01
.step tol1=0.02
.step tol1=0.03
.step tol1=0.04
.step tol1=0.05
.step tol1=0.06
.step tol1=0.07
.step tol1=0.08
.step tol1=0.09
.step tol1=0.1
.step tol1=0.11
.step tol1=0.12
.step tol1=0.13
.step tol1=0.14
.step tol1=0.15
.step tol1=0.16
.step tol1=0.17
.step tol1=0.18
.step tol1=0.19
.step tol1=0.2
.step tol1=0.21
.step tol1=0.22
.step tol1=0.23
.step tol1=0.24
.step tol1=0.25
.step tol1=0.26
.step tol1=0.27
.step tol1=0.28
.step tol1=0.29
.step tol1=0.3
.step tol1=0.31
.step tol1=0.32
.step tol1=0.33
.step tol1=0.34
.step tol1=0.35
.step tol1=0.36
.step tol1=0.37
.step tol1=0.38
.step tol1=0.39
.step tol1=0.4
.step tol1=0.41
.step tol1=0.42
.step tol1=0.43
.step tol1=0.44
.step tol1=0.45
.step tol1=0.46
.step tol1=0.47
.step tol1=0.48
.step tol1=0.49
.step tol1=0.5
.step tol1=0.51
.step tol1=0.52
.step tol1=0.53
.step tol1=0.54
.step tol1=0.55
.step tol1=0.56
.step tol1=0.57
.step tol1=0.58
.step tol1=0.59
.step tol1=0.6
.step tol1=0.61
.step tol1=0.62
.step tol1=0.63
.step tol1=0.64
.step tol1=0.65
.step tol1=0.66
.step tol1=0.67
.step tol1=0.68
.step tol1=0.69
.step tol1=0.7
.step tol1=0.71
.step tol1=0.72
.step tol1=0.73
.step tol1=0.74
.step tol1=0.75
.step tol1=0.76
.step tol1=0.77
.step tol1=0.78
.step tol1=0.79
.step tol1=0.8
.step tol1=0.81
.step tol1=0.82
.step tol1=0.83
.step tol1=0.84
.step tol1=0.85
.step tol1=0.86
.step tol1=0.87
.step tol1=0.88
.step tol1=0.89
.step tol1=0.9
.step tol1=0.91
.step tol1=0.92
.step tol1=0.93
.step tol1=0.94
.step tol1=0.95
.step tol1=0.96
.step tol1=0.97
.step tol1=0.98
.step tol1=0.99
.step tol1=1


Measurement: imax
  step	MAX(-i(v1))	FROM	TO
     1	0.998033	0	0.0001
     2	0.998034	0	0.0001
     3	0.998034	0	0.0001
     4	0.998034	0	0.0001
     5	0.998034	0	0.0001
     6	0.998034	0	0.0001
     7	0.998033	0	0.0001
     8	0.998034	0	0.0001
     9	0.998034	0	0.0001
    10	0.998034	0	0.0001
    11	0.998036	0	0.0001
    12	0.998036	0	0.0001
    13	0.998034	0	0.0001
    14	0.998034	0	0.0001
    15	0.998034	0	0.0001
    16	0.998035	0	0.0001
    17	0.998035	0	0.0001
    18	0.998035	0	0.0001
    19	0.998034	0	0.0001
    20	0.998034	0	0.0001
    21	0.998034	0	0.0001
    22	0.998034	0	0.0001
    23	0.998034	0	0.0001
    24	0.998034	0	0.0001
    25	0.998034	0	0.0001
    26	0.998034	0	0.0001
    27	0.998034	0	0.0001
    28	0.998034	0	0.0001
    29	0.998034	0	0.0001
    30	0.998034	0	0.0001
    31	0.998034	0	0.0001
    32	0.998034	0	0.0001
    33	0.998034	0	0.0001
    34	0.998035	0	0.0001
    35	0.998035	0	0.0001
    36	0.998034	0	0.0001
    37	0.998034	0	0.0001
    38	0.998034	0	0.0001
    39	0.998034	0	0.0001
    40	0.998034	0	0.0001
    41	0.998034	0	0.0001
    42	0.998034	0	0.0001
    43	0.998034	0	0.0001
    44	0.998034	0	0.0001
    45	0.998034	0	0.0001
    46	0.998034	0	0.0001
    47	0.998034	0	0.0001
    48	0.998034	0	0.0001
    49	0.998034	0	0.0001
    50	0.998034	0	0.0001
    51	0.998034	0	0.0001
    52	0.998034	0	0.0001
    53	0.998034	0	0.0001
    54	0.998034	0	0.0001
    55	0.998034	0	0.0001
    56	0.998034	0	0.0001
    57	0.998034	0	0.0001
    58	0.998035	0	0.0001
    59	0.998034	0	0.0001
    60	0.998034	0	0.0001
    61	0.998035	0	0.0001
    62	0.998035	0	0.0001
    63	0.998034	0	0.0001
    64	0.998035	0	0.0001
    65	0.998034	0	0.0001
    66	0.998034	0	0.0001
    67	0.998034	0	0.0001
    68	0.998034	0	0.0001
    69	0.998034	0	0.0001
    70	0.998034	0	0.0001
    71	0.998034	0	0.0001
    72	0.998034	0	0.0001
    73	0.998034	0	0.0001
    74	0.998034	0	0.0001
    75	0.998034	0	0.0001
    76	0.998034	0	0.0001
    77	0.998035	0	0.0001
    78	0.998034	0	0.0001
    79	0.998034	0	0.0001
    80	0.998034	0	0.0001
    81	0.998034	0	0.0001
    82	0.998034	0	0.0001
    83	0.998034	0	0.0001
    84	0.998034	0	0.0001
    85	0.998034	0	0.0001
    86	0.998034	0	0.0001
    87	0.998035	0	0.0001
    88	0.998034	0	0.0001
    89	0.998035	0	0.0001
    90	0.998034	0	0.0001
    91	0.998034	0	0.0001
    92	0.998034	0	0.0001
    93	0.998035	0	0.0001
    94	0.998034	0	0.0001
    95	0.998034	0	0.0001
    96	0.998034	0	0.0001
    97	0.998034	0	0.0001
    98	0.998034	0	0.0001
    99	0.998034	0	0.0001
   100	0.998034	0	0.0001
   101	0.998034	0	0.0001

Measurement: tr1
  step	tr1	FROM	TO
     1	1.46403e-007	2.01363e-005	2.02827e-005
     2	1.47674e-007	2.01364e-005	2.02841e-005
     3	1.48944e-007	2.01365e-005	2.02855e-005
     4	1.50214e-007	2.01367e-005	2.02869e-005
     5	1.51482e-007	2.01368e-005	2.02883e-005
     6	1.52748e-007	2.01369e-005	2.02897e-005
     7	1.54012e-007	2.01371e-005	2.02911e-005
     8	1.55295e-007	2.01372e-005	2.02925e-005
     9	1.56592e-007	2.01373e-005	2.02939e-005
    10	1.58078e-007	2.01375e-005	2.02955e-005
    11	1.59341e-007	2.01376e-005	2.02969e-005
    12	1.60642e-007	2.01377e-005	2.02984e-005
    13	1.61942e-007	2.01378e-005	2.02998e-005
    14	1.63026e-007	2.0138e-005	2.0301e-005
    15	1.6436e-007	2.01381e-005	2.03025e-005
    16	1.65691e-007	2.01382e-005	2.03039e-005
    17	1.67018e-007	2.01384e-005	2.03054e-005
    18	1.68342e-007	2.01385e-005	2.03069e-005
    19	1.69663e-007	2.01386e-005	2.03083e-005
    20	1.70959e-007	2.01388e-005	2.03097e-005
    21	1.72247e-007	2.01389e-005	2.03112e-005
    22	1.73371e-007	2.0139e-005	2.03124e-005
    23	1.74745e-007	2.01392e-005	2.03139e-005
    24	1.76024e-007	2.01393e-005	2.03153e-005
    25	1.77299e-007	2.01394e-005	2.03167e-005
    26	1.78571e-007	2.01396e-005	2.03181e-005
    27	1.79839e-007	2.01397e-005	2.03195e-005
    28	1.80909e-007	2.01398e-005	2.03208e-005
    29	1.82272e-007	2.014e-005	2.03223e-005
    30	1.83676e-007	2.01401e-005	2.03238e-005
    31	1.85215e-007	2.01402e-005	2.03255e-005
    32	1.86565e-007	2.01404e-005	2.03269e-005
    33	1.87451e-007	2.01405e-005	2.0328e-005
    34	1.8885e-007	2.01406e-005	2.03295e-005
    35	1.90616e-007	2.01408e-005	2.03314e-005
    36	1.92031e-007	2.01409e-005	2.03329e-005
    37	1.92042e-007	2.01411e-005	2.03331e-005
    38	1.93203e-007	2.01412e-005	2.03344e-005
    39	1.94358e-007	2.01413e-005	2.03357e-005
    40	1.9561e-007	2.01415e-005	2.03371e-005
    41	1.96747e-007	2.01416e-005	2.03383e-005
    42	1.97881e-007	2.01417e-005	2.03396e-005
    43	1.99007e-007	2.01419e-005	2.03409e-005
    44	2.00105e-007	2.0142e-005	2.03421e-005
    45	2.01205e-007	2.01421e-005	2.03433e-005
    46	2.02311e-007	2.01423e-005	2.03446e-005
    47	2.03425e-007	2.01424e-005	2.03458e-005
    48	2.04548e-007	2.01426e-005	2.03471e-005
    49	2.05681e-007	2.01427e-005	2.03484e-005
    50	2.06349e-007	2.01428e-005	2.03492e-005
    51	2.06953e-007	2.0143e-005	2.03499e-005
    52	2.06707e-007	2.01431e-005	2.03498e-005
    53	2.07961e-007	2.01432e-005	2.03512e-005
    54	2.09148e-007	2.01434e-005	2.03525e-005
    55	2.10338e-007	2.01435e-005	2.03539e-005
    56	2.11526e-007	2.01437e-005	2.03552e-005
    57	2.12696e-007	2.01438e-005	2.03565e-005
    58	2.13897e-007	2.01439e-005	2.03578e-005
    59	2.15079e-007	2.01441e-005	2.03592e-005
    60	2.1626e-007	2.01442e-005	2.03605e-005
    61	2.17432e-007	2.01444e-005	2.03618e-005
    62	2.18606e-007	2.01445e-005	2.03631e-005
    63	2.19778e-007	2.01446e-005	2.03644e-005
    64	2.20952e-007	2.01448e-005	2.03657e-005
    65	2.22129e-007	2.01449e-005	2.0367e-005
    66	2.23308e-007	2.01451e-005	2.03684e-005
    67	2.24115e-007	2.01452e-005	2.03693e-005
    68	2.25378e-007	2.01453e-005	2.03707e-005
    69	2.26634e-007	2.01455e-005	2.03721e-005
    70	2.27872e-007	2.01456e-005	2.03735e-005
    71	2.29105e-007	2.01458e-005	2.03749e-005
    72	2.30331e-007	2.01459e-005	2.03762e-005
    73	2.31576e-007	2.0146e-005	2.03776e-005
    74	2.32901e-007	2.01462e-005	2.03791e-005
    75	2.34224e-007	2.01463e-005	2.03805e-005
    76	2.35546e-007	2.01465e-005	2.0382e-005
    77	2.36868e-007	2.01466e-005	2.03835e-005
    78	2.38189e-007	2.01467e-005	2.03849e-005
    79	2.39515e-007	2.01469e-005	2.03864e-005
    80	2.40845e-007	2.0147e-005	2.03879e-005
    81	2.4218e-007	2.01472e-005	2.03894e-005
    82	2.43499e-007	2.01473e-005	2.03908e-005
    83	2.44837e-007	2.01474e-005	2.03923e-005
    84	2.46181e-007	2.01476e-005	2.03937e-005
    85	2.47522e-007	2.01477e-005	2.03952e-005
    86	2.48877e-007	2.01478e-005	2.03967e-005
    87	2.50238e-007	2.01479e-005	2.03982e-005
    88	2.51516e-007	2.01481e-005	2.03996e-005
    89	2.5291e-007	2.01482e-005	2.04011e-005
    90	2.54307e-007	2.01483e-005	2.04026e-005
    91	2.55715e-007	2.01485e-005	2.04042e-005
    92	2.57122e-007	2.01486e-005	2.04057e-005
    93	2.58531e-007	2.01487e-005	2.04072e-005
    94	2.59943e-007	2.01488e-005	2.04088e-005
    95	2.61363e-007	2.0149e-005	2.04103e-005
    96	2.62791e-007	2.01491e-005	2.04119e-005
    97	2.64226e-007	2.01492e-005	2.04134e-005
    98	2.65668e-007	2.01493e-005	2.0415e-005
    99	2.67242e-007	2.01495e-005	2.04167e-005
   100	2.68427e-007	2.01496e-005	2.0418e-005
   101	2.69611e-007	2.01497e-005	2.04193e-005

Measurement: tr2
  step	tr2	FROM	TO
     1	4.44971e-007	6.13959e-005	6.18409e-005
     2	4.3943e-007	6.14045e-005	6.18439e-005
     3	4.38247e-007	6.14131e-005	6.18513e-005
     4	4.52422e-007	6.1423e-005	6.18754e-005
     5	4.61338e-007	6.1432e-005	6.18934e-005
     6	4.52194e-007	6.14398e-005	6.18919e-005
     7	4.67751e-007	6.14494e-005	6.19171e-005
     8	4.73192e-007	6.14585e-005	6.19317e-005
     9	4.7552e-007	6.14671e-005	6.19426e-005
    10	4.63024e-007	6.14754e-005	6.19384e-005
    11	4.66642e-007	6.14837e-005	6.19503e-005
    12	4.70821e-007	6.14927e-005	6.19636e-005
    13	4.73443e-007	6.15016e-005	6.1975e-005
    14	4.76959e-007	6.15099e-005	6.19869e-005
    15	4.88627e-007	6.15195e-005	6.20081e-005
    16	4.93154e-007	6.15282e-005	6.20214e-005
    17	5.0364e-007	6.15371e-005	6.20407e-005
    18	4.9563e-007	6.15451e-005	6.20407e-005
    19	5.08418e-007	6.1555e-005	6.20634e-005
    20	5.14061e-007	6.15636e-005	6.20776e-005
    21	5.17415e-007	6.15717e-005	6.20892e-005
    22	5.05369e-007	6.15806e-005	6.2086e-005
    23	5.10259e-007	6.15903e-005	6.21005e-005
    24	5.22751e-007	6.15988e-005	6.21215e-005
    25	5.25034e-007	6.16074e-005	6.21325e-005
    26	5.28426e-007	6.16162e-005	6.21446e-005
    27	5.30609e-007	6.1625e-005	6.21556e-005
    28	5.30027e-007	6.16342e-005	6.21642e-005
    29	5.33039e-007	6.16429e-005	6.21759e-005
    30	5.36627e-007	6.16514e-005	6.2188e-005
    31	5.39508e-007	6.16602e-005	6.21997e-005
    32	5.47023e-007	6.16695e-005	6.22165e-005
    33	5.47769e-007	6.16774e-005	6.22251e-005
    34	5.54133e-007	6.16866e-005	6.22407e-005
    35	5.63321e-007	6.16958e-005	6.22591e-005
    36	5.64695e-007	6.17044e-005	6.22691e-005
    37	5.58425e-007	6.17134e-005	6.22718e-005
    38	5.57502e-007	6.1722e-005	6.22795e-005
    39	5.70877e-007	6.17306e-005	6.23014e-005
    40	5.73421e-007	6.17393e-005	6.23127e-005
    41	5.77529e-007	6.17482e-005	6.23257e-005
    42	5.85598e-007	6.17585e-005	6.23441e-005
    43	5.7569e-007	6.17654e-005	6.23411e-005
    44	5.89169e-007	6.17759e-005	6.2365e-005
    45	5.89611e-007	6.17836e-005	6.23732e-005
    46	5.93761e-007	6.17934e-005	6.23872e-005
    47	5.97259e-007	6.18019e-005	6.23992e-005
    48	5.93759e-007	6.18096e-005	6.24034e-005
    49	5.99282e-007	6.18191e-005	6.24184e-005
    50	6.02743e-007	6.18278e-005	6.24305e-005
    51	6.0893e-007	6.18371e-005	6.24461e-005
    52	6.12554e-007	6.18458e-005	6.24584e-005
    53	6.15424e-007	6.18548e-005	6.24702e-005
    54	6.18562e-007	6.18633e-005	6.24818e-005
    55	6.237e-007	6.18719e-005	6.24956e-005
    56	6.27453e-007	6.18807e-005	6.25082e-005
    57	6.22912e-007	6.18888e-005	6.25117e-005
    58	6.25662e-007	6.18983e-005	6.2524e-005
    59	6.30325e-007	6.19068e-005	6.25371e-005
    60	6.35428e-007	6.1916e-005	6.25514e-005
    61	6.37923e-007	6.19245e-005	6.25624e-005
    62	6.42234e-007	6.19334e-005	6.25756e-005
    63	6.48161e-007	6.19426e-005	6.25907e-005
    64	6.46042e-007	6.19518e-005	6.25978e-005
    65	6.61584e-007	6.19598e-005	6.26214e-005
    66	6.64541e-007	6.19689e-005	6.26334e-005
    67	6.60605e-007	6.1979e-005	6.26396e-005
    68	6.65674e-007	6.19878e-005	6.26535e-005
    69	6.67696e-007	6.19961e-005	6.26638e-005
    70	6.75456e-007	6.2004e-005	6.26794e-005
    71	6.81043e-007	6.20137e-005	6.26947e-005
    72	6.80886e-007	6.20212e-005	6.27021e-005
    73	6.7954e-007	6.20298e-005	6.27094e-005
    74	6.85797e-007	6.20392e-005	6.2725e-005
    75	6.93913e-007	6.20487e-005	6.27426e-005
    76	6.94578e-007	6.20581e-005	6.27526e-005
    77	6.93986e-007	6.20652e-005	6.27592e-005
    78	6.95213e-007	6.20739e-005	6.27692e-005
    79	6.98975e-007	6.20824e-005	6.27814e-005
    80	7.03496e-007	6.20924e-005	6.27959e-005
    81	7.09676e-007	6.21019e-005	6.28116e-005
    82	7.12171e-007	6.21106e-005	6.28228e-005
    83	7.13445e-007	6.21192e-005	6.28327e-005
    84	7.16244e-007	6.21282e-005	6.28444e-005
    85	7.18821e-007	6.21361e-005	6.28549e-005
    86	7.21941e-007	6.21457e-005	6.28676e-005
    87	7.25172e-007	6.21543e-005	6.28795e-005
    88	7.30459e-007	6.21633e-005	6.28938e-005
    89	7.3715e-007	6.21717e-005	6.29089e-005
    90	7.43283e-007	6.21796e-005	6.29229e-005
    91	7.38633e-007	6.21899e-005	6.29285e-005
    92	7.48186e-007	6.21974e-005	6.29456e-005
    93	7.52784e-007	6.2206e-005	6.29588e-005
    94	7.57242e-007	6.22146e-005	6.29718e-005
    95	7.53452e-007	6.22252e-005	6.29787e-005
    96	7.62818e-007	6.22328e-005	6.29956e-005
    97	7.66587e-007	6.22423e-005	6.30089e-005
    98	7.70008e-007	6.22513e-005	6.30213e-005
    99	7.73073e-007	6.22601e-005	6.30332e-005
   100	7.76103e-007	6.22688e-005	6.30449e-005
   101	7.79153e-007	6.22775e-005	6.30567e-005

Measurement: vth
  step	v(n004)	at
     1	2.66435	2.01953e-005
     2	2.6643	2.01959e-005
     3	2.66425	2.01965e-005
     4	2.6642	2.01971e-005
     5	2.66415	2.01977e-005
     6	2.66411	2.01983e-005
     7	2.66407	2.01988e-005
     8	2.66404	2.01994e-005
     9	2.66402	2.02e-005
    10	2.66403	2.02005e-005
    11	2.66402	2.0201e-005
    12	2.66401	2.02016e-005
    13	2.66401	2.02022e-005
    14	2.66414	2.02027e-005
    15	2.66413	2.02033e-005
    16	2.66413	2.02038e-005
    17	2.66414	2.02044e-005
    18	2.66415	2.02049e-005
    19	2.66415	2.02055e-005
    20	2.66417	2.0206e-005
    21	2.66418	2.02066e-005
    22	2.66421	2.02071e-005
    23	2.66418	2.02077e-005
    24	2.6642	2.02082e-005
    25	2.66423	2.02088e-005
    26	2.66425	2.02093e-005
    27	2.66428	2.02099e-005
    28	2.66432	2.02104e-005
    29	2.66436	2.02109e-005
    30	2.66441	2.02114e-005
    31	2.66433	2.02121e-005
    32	2.66422	2.02128e-005
    33	2.66413	2.02134e-005
    34	2.66404	2.0214e-005
    35	2.66396	2.02146e-005
    36	2.66388	2.02152e-005
    37	2.6638	2.02158e-005
    38	2.66373	2.02164e-005
    39	2.66366	2.0217e-005
    40	2.66349	2.02176e-005
    41	2.66343	2.02182e-005
    42	2.66338	2.02188e-005
    43	2.66333	2.02193e-005
    44	2.66328	2.02199e-005
    45	2.66323	2.02205e-005
    46	2.66319	2.0221e-005
    47	2.66316	2.02216e-005
    48	2.66312	2.02221e-005
    49	2.66309	2.02227e-005
    50	2.66306	2.02232e-005
    51	2.66304	2.02238e-005
    52	2.66267	2.02258e-005
    53	2.66262	2.02265e-005
    54	2.66257	2.02271e-005
    55	2.66253	2.02277e-005
    56	2.66249	2.02284e-005
    57	2.66245	2.0229e-005
    58	2.66242	2.02296e-005
    59	2.66238	2.02302e-005
    60	2.66235	2.02308e-005
    61	2.66232	2.02315e-005
    62	2.66229	2.02321e-005
    63	2.66226	2.02327e-005
    64	2.66224	2.02333e-005
    65	2.66221	2.0234e-005
    66	2.66219	2.02346e-005
    67	2.66214	2.02355e-005
    68	2.66213	2.02361e-005
    69	2.66212	2.02366e-005
    70	2.66211	2.02372e-005
    71	2.6621	2.02378e-005
    72	2.6621	2.02383e-005
    73	2.66209	2.02389e-005
    74	2.66209	2.02394e-005
    75	2.66208	2.024e-005
    76	2.66208	2.02405e-005
    77	2.66208	2.0241e-005
    78	2.66208	2.02416e-005
    79	2.66208	2.02421e-005
    80	2.66209	2.02427e-005
    81	2.66209	2.02432e-005
    82	2.6621	2.02438e-005
    83	2.6621	2.02443e-005
    84	2.66211	2.02448e-005
    85	2.66212	2.02454e-005
    86	2.66213	2.02459e-005
    87	2.66214	2.02464e-005
    88	2.66216	2.0247e-005
    89	2.66217	2.02475e-005
    90	2.66218	2.0248e-005
    91	2.66219	2.02486e-005
    92	2.66221	2.02491e-005
    93	2.66222	2.02496e-005
    94	2.66224	2.02502e-005
    95	2.66225	2.02507e-005
    96	2.66227	2.02512e-005
    97	2.66229	2.02518e-005
    98	2.66231	2.02523e-005
    99	2.66233	2.02528e-005
   100	2.66235	2.02533e-005
   101	2.66238	2.02539e-005


Date: Tue Mar 22 14:28:54 2022
Total elapsed time: 1.146 seconds.

tnom = 27
temp = 27
method = modified trap
totiter = 2382
traniter = 2353
tranpoints = 1140
accept = 1107
rejected = 33
matrix size = 11
fillins = 0
solver = Normal
Matrix Compiler1: 674 bytes object code size  0.1/0.1/[0.1]
Matrix Compiler2: off  [0.1]/0.1/0.1

