Circuit: * C:\Users\user\Documents\LTspiceXVII\file\Montecarlo\monte_SiC.asc

Direct Newton iteration for .op point succeeded.
.step tol1=0
.step tol1=0.01
.step tol1=0.02
.step tol1=0.03
.step tol1=0.04
.step tol1=0.05
.step tol1=0.06
.step tol1=0.07
.step tol1=0.08
.step tol1=0.09
.step tol1=0.1
.step tol1=0.11
.step tol1=0.12
.step tol1=0.13
.step tol1=0.14
.step tol1=0.15
.step tol1=0.16
.step tol1=0.17
.step tol1=0.18
.step tol1=0.19
.step tol1=0.2
.step tol1=0.21
.step tol1=0.22
.step tol1=0.23
.step tol1=0.24
.step tol1=0.25
.step tol1=0.26
.step tol1=0.27
.step tol1=0.28
.step tol1=0.29
.step tol1=0.3
.step tol1=0.31
.step tol1=0.32
.step tol1=0.33
.step tol1=0.34
.step tol1=0.35
.step tol1=0.36
.step tol1=0.37
.step tol1=0.38
.step tol1=0.39
.step tol1=0.4
.step tol1=0.41
.step tol1=0.42
.step tol1=0.43
.step tol1=0.44
.step tol1=0.45
.step tol1=0.46
.step tol1=0.47
.step tol1=0.48
.step tol1=0.49
.step tol1=0.5
.step tol1=0.51
.step tol1=0.52
.step tol1=0.53
.step tol1=0.54
.step tol1=0.55
.step tol1=0.56
.step tol1=0.57
.step tol1=0.58
.step tol1=0.59
.step tol1=0.6
.step tol1=0.61
.step tol1=0.62
.step tol1=0.63
.step tol1=0.64
.step tol1=0.65
.step tol1=0.66
.step tol1=0.67
.step tol1=0.68
.step tol1=0.69
.step tol1=0.7
.step tol1=0.71
.step tol1=0.72
.step tol1=0.73
.step tol1=0.74
.step tol1=0.75
.step tol1=0.76
.step tol1=0.77
.step tol1=0.78
.step tol1=0.79
.step tol1=0.8
.step tol1=0.81
.step tol1=0.82
.step tol1=0.83
.step tol1=0.84
.step tol1=0.85
.step tol1=0.86
.step tol1=0.87
.step tol1=0.88
.step tol1=0.89
.step tol1=0.9
.step tol1=0.91
.step tol1=0.92
.step tol1=0.93
.step tol1=0.94
.step tol1=0.95
.step tol1=0.96
.step tol1=0.97
.step tol1=0.98
.step tol1=0.99
.step tol1=1


Measurement: imax
  step	MAX(-i(v1))	FROM	TO
     1	9.80646	0	0.0001
     2	9.80646	0	0.0001
     3	9.80646	0	0.0001
     4	9.80646	0	0.0001
     5	9.80646	0	0.0001
     6	9.80646	0	0.0001
     7	9.80646	0	0.0001
     8	9.80646	0	0.0001
     9	9.80646	0	0.0001
    10	9.80647	0	0.0001
    11	9.80646	0	0.0001
    12	9.80647	0	0.0001
    13	9.80647	0	0.0001
    14	9.80647	0	0.0001
    15	9.80647	0	0.0001
    16	9.80647	0	0.0001
    17	9.80647	0	0.0001
    18	9.80647	0	0.0001
    19	9.80647	0	0.0001
    20	9.80647	0	0.0001
    21	9.80647	0	0.0001
    22	9.80647	0	0.0001
    23	9.80647	0	0.0001
    24	9.80647	0	0.0001
    25	9.80647	0	0.0001
    26	9.80647	0	0.0001
    27	9.80647	0	0.0001
    28	9.80647	0	0.0001
    29	9.80647	0	0.0001
    30	9.80647	0	0.0001
    31	9.80647	0	0.0001
    32	9.80647	0	0.0001
    33	9.80647	0	0.0001
    34	9.80647	0	0.0001
    35	9.80647	0	0.0001
    36	9.80647	0	0.0001
    37	9.80647	0	0.0001
    38	9.80647	0	0.0001
    39	9.80647	0	0.0001
    40	9.80647	0	0.0001
    41	9.80647	0	0.0001
    42	9.80647	0	0.0001
    43	9.80647	0	0.0001
    44	9.80647	0	0.0001
    45	9.80647	0	0.0001
    46	9.80647	0	0.0001
    47	9.80647	0	0.0001
    48	9.80647	0	0.0001
    49	9.80647	0	0.0001
    50	9.80647	0	0.0001
    51	9.80647	0	0.0001
    52	9.80647	0	0.0001
    53	9.80647	0	0.0001
    54	9.80647	0	0.0001
    55	9.80647	0	0.0001
    56	9.80647	0	0.0001
    57	9.80647	0	0.0001
    58	9.80647	0	0.0001
    59	9.80647	0	0.0001
    60	9.80643	0	0.0001
    61	9.80647	0	0.0001
    62	9.80647	0	0.0001
    63	9.80647	0	0.0001
    64	9.80647	0	0.0001
    65	9.80647	0	0.0001
    66	9.80647	0	0.0001
    67	9.80647	0	0.0001
    68	9.80643	0	0.0001
    69	9.80643	0	0.0001
    70	9.80647	0	0.0001
    71	9.80647	0	0.0001
    72	9.80643	0	0.0001
    73	9.80647	0	0.0001
    74	9.80647	0	0.0001
    75	9.80647	0	0.0001
    76	9.80647	0	0.0001
    77	9.80647	0	0.0001
    78	9.80647	0	0.0001
    79	9.80647	0	0.0001
    80	9.80647	0	0.0001
    81	9.80647	0	0.0001
    82	9.80647	0	0.0001
    83	9.80647	0	0.0001
    84	9.80647	0	0.0001
    85	9.80647	0	0.0001
    86	9.80647	0	0.0001
    87	9.80647	0	0.0001
    88	9.80647	0	0.0001
    89	9.80647	0	0.0001
    90	9.80647	0	0.0001
    91	9.80647	0	0.0001
    92	9.80647	0	0.0001
    93	9.80647	0	0.0001
    94	9.80647	0	0.0001
    95	9.80647	0	0.0001
    96	9.80647	0	0.0001
    97	9.80647	0	0.0001
    98	9.80647	0	0.0001
    99	9.80647	0	0.0001
   100	9.80647	0	0.0001
   101	9.80647	0	0.0001

Measurement: tr1
  step	tr1	FROM	TO
     1	1.8838e-007	2.01446e-005	2.0333e-005
     2	1.8838e-007	2.01446e-005	2.0333e-005
     3	1.88381e-007	2.01446e-005	2.0333e-005
     4	1.88382e-007	2.01446e-005	2.0333e-005
     5	1.88382e-007	2.01446e-005	2.0333e-005
     6	1.88383e-007	2.01446e-005	2.0333e-005
     7	1.88384e-007	2.01446e-005	2.0333e-005
     8	1.88384e-007	2.01446e-005	2.0333e-005
     9	1.88385e-007	2.01446e-005	2.0333e-005
    10	1.88385e-007	2.01446e-005	2.0333e-005
    11	1.88386e-007	2.01446e-005	2.0333e-005
    12	1.88386e-007	2.01446e-005	2.0333e-005
    13	1.88387e-007	2.01446e-005	2.0333e-005
    14	1.88387e-007	2.01446e-005	2.0333e-005
    15	1.88388e-007	2.01446e-005	2.0333e-005
    16	1.88388e-007	2.01446e-005	2.0333e-005
    17	1.88389e-007	2.01446e-005	2.0333e-005
    18	1.88389e-007	2.01446e-005	2.0333e-005
    19	1.8839e-007	2.01446e-005	2.0333e-005
    20	1.8839e-007	2.01446e-005	2.0333e-005
    21	1.88391e-007	2.01446e-005	2.0333e-005
    22	1.88391e-007	2.01446e-005	2.0333e-005
    23	1.88392e-007	2.01446e-005	2.0333e-005
    24	1.88392e-007	2.01446e-005	2.0333e-005
    25	1.88392e-007	2.01446e-005	2.0333e-005
    26	1.88393e-007	2.01446e-005	2.0333e-005
    27	1.88393e-007	2.01446e-005	2.0333e-005
    28	1.88394e-007	2.01446e-005	2.0333e-005
    29	1.88394e-007	2.01446e-005	2.0333e-005
    30	1.88395e-007	2.01446e-005	2.0333e-005
    31	1.88395e-007	2.01446e-005	2.0333e-005
    32	1.88396e-007	2.01446e-005	2.0333e-005
    33	1.88396e-007	2.01446e-005	2.0333e-005
    34	1.88397e-007	2.01446e-005	2.0333e-005
    35	1.88397e-007	2.01446e-005	2.0333e-005
    36	1.88398e-007	2.01446e-005	2.0333e-005
    37	1.88398e-007	2.01446e-005	2.0333e-005
    38	1.88398e-007	2.01446e-005	2.0333e-005
    39	1.88399e-007	2.01446e-005	2.0333e-005
    40	1.88399e-007	2.01446e-005	2.0333e-005
    41	1.884e-007	2.01446e-005	2.0333e-005
    42	1.884e-007	2.01446e-005	2.0333e-005
    43	1.88401e-007	2.01446e-005	2.0333e-005
    44	1.88401e-007	2.01446e-005	2.0333e-005
    45	1.88401e-007	2.01446e-005	2.0333e-005
    46	1.88402e-007	2.01446e-005	2.0333e-005
    47	1.88402e-007	2.01446e-005	2.0333e-005
    48	1.88403e-007	2.01446e-005	2.0333e-005
    49	1.88403e-007	2.01446e-005	2.0333e-005
    50	1.88404e-007	2.01446e-005	2.0333e-005
    51	1.88404e-007	2.01446e-005	2.0333e-005
    52	1.88404e-007	2.01446e-005	2.0333e-005
    53	1.88405e-007	2.01446e-005	2.0333e-005
    54	1.88405e-007	2.01446e-005	2.0333e-005
    55	1.88406e-007	2.01446e-005	2.0333e-005
    56	1.88406e-007	2.01446e-005	2.0333e-005
    57	1.88406e-007	2.01446e-005	2.0333e-005
    58	1.88407e-007	2.01446e-005	2.0333e-005
    59	1.88407e-007	2.01446e-005	2.0333e-005
    60	1.88406e-007	2.01446e-005	2.0333e-005
    61	1.88408e-007	2.01446e-005	2.0333e-005
    62	1.88408e-007	2.01446e-005	2.0333e-005
    63	1.88409e-007	2.01446e-005	2.0333e-005
    64	1.88409e-007	2.01446e-005	2.0333e-005
    65	1.8841e-007	2.01446e-005	2.0333e-005
    66	1.8841e-007	2.01446e-005	2.0333e-005
    67	1.8841e-007	2.01446e-005	2.0333e-005
    68	1.88409e-007	2.01446e-005	2.0333e-005
    69	1.88409e-007	2.01446e-005	2.0333e-005
    70	1.88411e-007	2.01446e-005	2.0333e-005
    71	1.88412e-007	2.01446e-005	2.0333e-005
    72	1.8841e-007	2.01446e-005	2.0333e-005
    73	1.88412e-007	2.01446e-005	2.0333e-005
    74	1.88413e-007	2.01446e-005	2.0333e-005
    75	1.88413e-007	2.01446e-005	2.0333e-005
    76	1.88413e-007	2.01446e-005	2.0333e-005
    77	1.88414e-007	2.01446e-005	2.0333e-005
    78	1.88414e-007	2.01446e-005	2.0333e-005
    79	1.88414e-007	2.01446e-005	2.0333e-005
    80	1.88415e-007	2.01446e-005	2.0333e-005
    81	1.88415e-007	2.01446e-005	2.0333e-005
    82	1.88415e-007	2.01446e-005	2.0333e-005
    83	1.88416e-007	2.01446e-005	2.0333e-005
    84	1.88416e-007	2.01446e-005	2.0333e-005
    85	1.88416e-007	2.01446e-005	2.0333e-005
    86	1.88417e-007	2.01446e-005	2.0333e-005
    87	1.88417e-007	2.01446e-005	2.0333e-005
    88	1.88417e-007	2.01446e-005	2.0333e-005
    89	1.88418e-007	2.01446e-005	2.0333e-005
    90	1.88418e-007	2.01446e-005	2.0333e-005
    91	1.88418e-007	2.01446e-005	2.0333e-005
    92	1.88419e-007	2.01446e-005	2.0333e-005
    93	1.88419e-007	2.01446e-005	2.0333e-005
    94	1.88419e-007	2.01446e-005	2.0333e-005
    95	1.88419e-007	2.01446e-005	2.0333e-005
    96	1.8842e-007	2.01446e-005	2.0333e-005
    97	1.8842e-007	2.01446e-005	2.03331e-005
    98	1.8842e-007	2.01446e-005	2.03331e-005
    99	1.88421e-007	2.01446e-005	2.03331e-005
   100	1.88421e-007	2.01446e-005	2.03331e-005
   101	1.88421e-007	2.01446e-005	2.03331e-005

Measurement: tr2
  step	tr2	FROM	TO
     1	4.24943e-007	6.12087e-005	6.16336e-005
     2	4.24942e-007	6.12087e-005	6.16336e-005
     3	4.24941e-007	6.12087e-005	6.16336e-005
     4	4.24939e-007	6.12087e-005	6.16336e-005
     5	4.24938e-007	6.12087e-005	6.16336e-005
     6	4.24936e-007	6.12087e-005	6.16336e-005
     7	4.24935e-007	6.12087e-005	6.16336e-005
     8	4.24934e-007	6.12087e-005	6.16336e-005
     9	4.24932e-007	6.12087e-005	6.16336e-005
    10	4.24931e-007	6.12087e-005	6.16336e-005
    11	4.24929e-007	6.12087e-005	6.16336e-005
    12	4.24928e-007	6.12087e-005	6.16336e-005
    13	4.24926e-007	6.12087e-005	6.16336e-005
    14	4.24925e-007	6.12087e-005	6.16336e-005
    15	4.24924e-007	6.12087e-005	6.16336e-005
    16	4.24922e-007	6.12087e-005	6.16336e-005
    17	4.24921e-007	6.12087e-005	6.16336e-005
    18	4.2492e-007	6.12087e-005	6.16336e-005
    19	4.24918e-007	6.12087e-005	6.16336e-005
    20	4.24917e-007	6.12087e-005	6.16336e-005
    21	4.24915e-007	6.12087e-005	6.16336e-005
    22	4.24914e-007	6.12087e-005	6.16336e-005
    23	4.24913e-007	6.12087e-005	6.16336e-005
    24	4.24911e-007	6.12087e-005	6.16336e-005
    25	4.2491e-007	6.12087e-005	6.16336e-005
    26	4.24909e-007	6.12087e-005	6.16336e-005
    27	4.24907e-007	6.12087e-005	6.16336e-005
    28	4.24906e-007	6.12087e-005	6.16336e-005
    29	4.24905e-007	6.12087e-005	6.16336e-005
    30	4.24903e-007	6.12087e-005	6.16336e-005
    31	4.24902e-007	6.12087e-005	6.16336e-005
    32	4.24901e-007	6.12087e-005	6.16336e-005
    33	4.24899e-007	6.12087e-005	6.16336e-005
    34	4.24898e-007	6.12087e-005	6.16336e-005
    35	4.24897e-007	6.12087e-005	6.16336e-005
    36	4.24895e-007	6.12087e-005	6.16336e-005
    37	4.24894e-007	6.12087e-005	6.16336e-005
    38	4.24893e-007	6.12087e-005	6.16336e-005
    39	4.24891e-007	6.12087e-005	6.16336e-005
    40	4.2489e-007	6.12087e-005	6.16336e-005
    41	4.24889e-007	6.12087e-005	6.16336e-005
    42	4.24887e-007	6.12087e-005	6.16335e-005
    43	4.24886e-007	6.12087e-005	6.16335e-005
    44	4.24886e-007	6.12087e-005	6.16335e-005
    45	4.24885e-007	6.12087e-005	6.16335e-005
    46	4.24884e-007	6.12087e-005	6.16335e-005
    47	4.24882e-007	6.12087e-005	6.16335e-005
    48	4.24881e-007	6.12087e-005	6.16335e-005
    49	4.2488e-007	6.12087e-005	6.16335e-005
    50	4.24878e-007	6.12087e-005	6.16335e-005
    51	4.24877e-007	6.12087e-005	6.16335e-005
    52	4.24876e-007	6.12087e-005	6.16335e-005
    53	4.24875e-007	6.12087e-005	6.16335e-005
    54	4.24873e-007	6.12087e-005	6.16335e-005
    55	4.24872e-007	6.12087e-005	6.16335e-005
    56	4.24871e-007	6.12087e-005	6.16335e-005
    57	4.24869e-007	6.12087e-005	6.16335e-005
    58	4.24868e-007	6.12087e-005	6.16335e-005
    59	4.24867e-007	6.12087e-005	6.16335e-005
    60	4.24606e-007	6.12093e-005	6.16339e-005
    61	4.20739e-007	6.12092e-005	6.16299e-005
    62	4.18569e-007	6.1209e-005	6.16276e-005
    63	4.18523e-007	6.12093e-005	6.16278e-005
    64	4.15854e-007	6.1209e-005	6.16249e-005
    65	4.20312e-007	6.12089e-005	6.16292e-005
    66	4.20969e-007	6.1209e-005	6.163e-005
    67	4.18576e-007	6.12094e-005	6.16279e-005
    68	4.11753e-007	6.12093e-005	6.16211e-005
    69	4.19485e-007	6.12093e-005	6.16288e-005
    70	4.20722e-007	6.12091e-005	6.16298e-005
    71	4.24502e-007	6.12093e-005	6.16338e-005
    72	4.21014e-007	6.12092e-005	6.16302e-005
    73	4.2485e-007	6.12087e-005	6.16335e-005
    74	4.24849e-007	6.12087e-005	6.16335e-005
    75	4.24847e-007	6.12087e-005	6.16335e-005
    76	4.24846e-007	6.12087e-005	6.16335e-005
    77	4.24845e-007	6.12087e-005	6.16335e-005
    78	4.24844e-007	6.12087e-005	6.16335e-005
    79	4.24843e-007	6.12087e-005	6.16335e-005
    80	4.24841e-007	6.12087e-005	6.16335e-005
    81	4.2484e-007	6.12087e-005	6.16335e-005
    82	4.24839e-007	6.12087e-005	6.16335e-005
    83	4.24838e-007	6.12087e-005	6.16335e-005
    84	4.24837e-007	6.12087e-005	6.16335e-005
    85	4.24835e-007	6.12087e-005	6.16335e-005
    86	4.24834e-007	6.12087e-005	6.16335e-005
    87	4.24833e-007	6.12087e-005	6.16335e-005
    88	4.24832e-007	6.12087e-005	6.16335e-005
    89	4.24831e-007	6.12087e-005	6.16335e-005
    90	4.2483e-007	6.12087e-005	6.16335e-005
    91	4.24828e-007	6.12087e-005	6.16335e-005
    92	4.24827e-007	6.12087e-005	6.16335e-005
    93	4.24826e-007	6.12087e-005	6.16335e-005
    94	4.24825e-007	6.12087e-005	6.16335e-005
    95	4.24824e-007	6.12087e-005	6.16335e-005
    96	4.24823e-007	6.12087e-005	6.16335e-005
    97	4.24822e-007	6.12087e-005	6.16335e-005
    98	4.24821e-007	6.12087e-005	6.16335e-005
    99	4.24819e-007	6.12087e-005	6.16335e-005
   100	4.24818e-007	6.12087e-005	6.16335e-005
   101	4.24817e-007	6.12087e-005	6.16335e-005

Measurement: vth
  step	v(n004)	at
     1	1.88283	2.01041e-005
     2	1.88283	2.01041e-005
     3	1.88283	2.01041e-005
     4	1.88284	2.01041e-005
     5	1.88284	2.01041e-005
     6	1.88285	2.01041e-005
     7	1.88285	2.01041e-005
     8	1.88286	2.01041e-005
     9	1.88286	2.01041e-005
    10	1.88286	2.01041e-005
    11	1.88287	2.01041e-005
    12	1.88287	2.01041e-005
    13	1.88288	2.01041e-005
    14	1.88288	2.01041e-005
    15	1.88289	2.01041e-005
    16	1.88289	2.01041e-005
    17	1.88289	2.01041e-005
    18	1.8829	2.01041e-005
    19	1.8829	2.01041e-005
    20	1.88291	2.01041e-005
    21	1.88291	2.01041e-005
    22	1.88292	2.01041e-005
    23	1.88292	2.01041e-005
    24	1.88292	2.01041e-005
    25	1.88293	2.01041e-005
    26	1.88293	2.01041e-005
    27	1.88294	2.01041e-005
    28	1.88294	2.01041e-005
    29	1.88294	2.01041e-005
    30	1.88295	2.01041e-005
    31	1.88295	2.01041e-005
    32	1.88296	2.01041e-005
    33	1.88296	2.01041e-005
    34	1.88297	2.01041e-005
    35	1.88297	2.01041e-005
    36	1.88297	2.01041e-005
    37	1.88298	2.01041e-005
    38	1.88298	2.01041e-005
    39	1.88299	2.01041e-005
    40	1.88299	2.01041e-005
    41	1.883	2.01041e-005
    42	1.883	2.01041e-005
    43	1.883	2.01041e-005
    44	1.88301	2.01041e-005
    45	1.88301	2.01041e-005
    46	1.88302	2.01041e-005
    47	1.88302	2.01041e-005
    48	1.88303	2.01041e-005
    49	1.88303	2.01041e-005
    50	1.88303	2.01041e-005
    51	1.88304	2.01041e-005
    52	1.88304	2.01041e-005
    53	1.88305	2.01041e-005
    54	1.88305	2.01041e-005
    55	1.88305	2.01041e-005
    56	1.88306	2.01041e-005
    57	1.88306	2.01041e-005
    58	1.88307	2.01041e-005
    59	1.88307	2.01041e-005
    60	1.88308	2.01041e-005
    61	1.88308	2.01041e-005
    62	1.88308	2.01041e-005
    63	1.88309	2.01041e-005
    64	1.88309	2.01041e-005
    65	1.8831	2.01041e-005
    66	1.8831	2.01041e-005
    67	1.88311	2.01041e-005
    68	1.88311	2.01041e-005
    69	1.88311	2.01041e-005
    70	1.88312	2.01041e-005
    71	1.88312	2.01041e-005
    72	1.88313	2.01041e-005
    73	1.88313	2.01041e-005
    74	1.88314	2.01041e-005
    75	1.88314	2.01041e-005
    76	1.88314	2.01041e-005
    77	1.88315	2.01041e-005
    78	1.88315	2.01041e-005
    79	1.88316	2.01041e-005
    80	1.88316	2.01041e-005
    81	1.88316	2.01041e-005
    82	1.88317	2.01041e-005
    83	1.88317	2.01041e-005
    84	1.88318	2.01041e-005
    85	1.88318	2.01041e-005
    86	1.88319	2.01041e-005
    87	1.88319	2.01041e-005
    88	1.88319	2.01041e-005
    89	1.8832	2.01041e-005
    90	1.8832	2.01041e-005
    91	1.88321	2.01041e-005
    92	1.88321	2.01041e-005
    93	1.88322	2.01041e-005
    94	1.88322	2.01041e-005
    95	1.88322	2.01041e-005
    96	1.88323	2.01041e-005
    97	1.88323	2.01041e-005
    98	1.88324	2.01041e-005
    99	1.88324	2.01041e-005
   100	1.88324	2.01041e-005
   101	1.88325	2.01041e-005


Date: Wed Mar 23 09:33:09 2022
Total elapsed time: 1.290 seconds.

tnom = 27
temp = 27
method = modified trap
totiter = 2471
traniter = 2441
tranpoints = 1111
accept = 1088
rejected = 23
matrix size = 11
fillins = 0
solver = Normal
Matrix Compiler1: 674 bytes object code size  0.1/0.1/[0.1]
Matrix Compiler2:      68 opcodes  0.1/[0.1]/0.1

