Circuit: * C:\Users\user\Documents\LTspiceXVII\file\Montecarlo\monte_SiC.asc

Direct Newton iteration for .op point succeeded.
.step tol1=0
.step tol1=0.01
.step tol1=0.02
.step tol1=0.03
.step tol1=0.04
.step tol1=0.05
.step tol1=0.06
.step tol1=0.07
.step tol1=0.08
.step tol1=0.09
.step tol1=0.1
.step tol1=0.11
.step tol1=0.12
.step tol1=0.13
.step tol1=0.14
.step tol1=0.15
.step tol1=0.16
.step tol1=0.17
.step tol1=0.18
.step tol1=0.19
.step tol1=0.2
.step tol1=0.21
.step tol1=0.22
.step tol1=0.23
.step tol1=0.24
.step tol1=0.25
.step tol1=0.26
.step tol1=0.27
.step tol1=0.28
.step tol1=0.29
.step tol1=0.3
.step tol1=0.31
.step tol1=0.32
.step tol1=0.33
.step tol1=0.34
.step tol1=0.35
.step tol1=0.36
.step tol1=0.37
.step tol1=0.38
.step tol1=0.39
.step tol1=0.4
.step tol1=0.41
.step tol1=0.42
.step tol1=0.43
.step tol1=0.44
.step tol1=0.45
.step tol1=0.46
.step tol1=0.47
.step tol1=0.48
.step tol1=0.49
.step tol1=0.5
.step tol1=0.51
.step tol1=0.52
.step tol1=0.53
.step tol1=0.54
.step tol1=0.55
.step tol1=0.56
.step tol1=0.57
.step tol1=0.58
.step tol1=0.59
.step tol1=0.6
.step tol1=0.61
.step tol1=0.62
.step tol1=0.63
.step tol1=0.64
.step tol1=0.65
.step tol1=0.66
.step tol1=0.67
.step tol1=0.68
.step tol1=0.69
.step tol1=0.7
.step tol1=0.71
.step tol1=0.72
.step tol1=0.73
.step tol1=0.74
.step tol1=0.75
.step tol1=0.76
.step tol1=0.77
.step tol1=0.78
.step tol1=0.79
.step tol1=0.8
.step tol1=0.81
.step tol1=0.82
.step tol1=0.83
.step tol1=0.84
.step tol1=0.85
.step tol1=0.86
.step tol1=0.87
.step tol1=0.88
.step tol1=0.89
.step tol1=0.9
.step tol1=0.91
.step tol1=0.92
.step tol1=0.93
.step tol1=0.94
.step tol1=0.95
.step tol1=0.96
.step tol1=0.97
.step tol1=0.98
.step tol1=0.99
.step tol1=1


Measurement: imax
  step	MAX(-i(v1))	FROM	TO
     1	9.80646	0	0.0001
     2	9.80646	0	0.0001
     3	9.80646	0	0.0001
     4	9.80646	0	0.0001
     5	9.80646	0	0.0001
     6	9.80645	0	0.0001
     7	9.80645	0	0.0001
     8	9.80645	0	0.0001
     9	9.80645	0	0.0001
    10	9.80645	0	0.0001
    11	9.80645	0	0.0001
    12	9.80644	0	0.0001
    13	9.80644	0	0.0001
    14	9.80644	0	0.0001
    15	9.80644	0	0.0001
    16	9.80644	0	0.0001
    17	9.80643	0	0.0001
    18	9.80643	0	0.0001
    19	9.80643	0	0.0001
    20	9.80643	0	0.0001
    21	9.80643	0	0.0001
    22	9.8064	0	0.0001
    23	9.8064	0	0.0001
    24	9.8064	0	0.0001
    25	9.8064	0	0.0001
    26	9.80639	0	0.0001
    27	9.80641	0	0.0001
    28	9.80639	0	0.0001
    29	9.80641	0	0.0001
    30	9.80641	0	0.0001
    31	9.80639	0	0.0001
    32	9.80639	0	0.0001
    33	9.8064	0	0.0001
    34	9.80641	0	0.0001
    35	9.80638	0	0.0001
    36	9.80638	0	0.0001
    37	9.8064	0	0.0001
    38	9.8064	0	0.0001
    39	9.8064	0	0.0001
    40	9.80639	0	0.0001
    41	9.80639	0	0.0001
    42	9.80639	0	0.0001
    43	9.80639	0	0.0001
    44	9.80639	0	0.0001
    45	9.80638	0	0.0001
    46	9.80638	0	0.0001
    47	9.80638	0	0.0001
    48	9.80638	0	0.0001
    49	9.80638	0	0.0001
    50	9.80638	0	0.0001
    51	9.80637	0	0.0001
    52	9.80637	0	0.0001
    53	9.80637	0	0.0001
    54	9.80637	0	0.0001
    55	9.80637	0	0.0001
    56	9.80637	0	0.0001
    57	9.80636	0	0.0001
    58	9.80636	0	0.0001
    59	9.80636	0	0.0001
    60	9.80636	0	0.0001
    61	9.80636	0	0.0001
    62	9.80635	0	0.0001
    63	9.80635	0	0.0001
    64	9.80635	0	0.0001
    65	9.80635	0	0.0001
    66	9.80635	0	0.0001
    67	9.80635	0	0.0001
    68	9.80634	0	0.0001
    69	9.80634	0	0.0001
    70	9.80634	0	0.0001
    71	9.80634	0	0.0001
    72	9.80634	0	0.0001
    73	9.80634	0	0.0001
    74	9.80633	0	0.0001
    75	9.80633	0	0.0001
    76	9.80633	0	0.0001
    77	9.80633	0	0.0001
    78	9.80633	0	0.0001
    79	9.80633	0	0.0001
    80	9.80632	0	0.0001
    81	9.80632	0	0.0001
    82	9.8063	0	0.0001
    83	9.8063	0	0.0001
    84	9.8063	0	0.0001
    85	9.80632	0	0.0001
    86	9.80631	0	0.0001
    87	9.80631	0	0.0001
    88	9.80629	0	0.0001
    89	9.80629	0	0.0001
    90	9.80629	0	0.0001
    91	9.80629	0	0.0001
    92	9.8063	0	0.0001
    93	9.8063	0	0.0001
    94	9.80628	0	0.0001
    95	9.80629	0	0.0001
    96	9.8063	0	0.0001
    97	9.8063	0	0.0001
    98	9.8063	0	0.0001
    99	9.8063	0	0.0001
   100	9.8063	0	0.0001
   101	9.80629	0	0.0001

Measurement: tr1
  step	tr1	FROM	TO
     1	1.8838e-007	2.01446e-005	2.0333e-005
     2	1.88505e-007	2.01446e-005	2.03331e-005
     3	1.8863e-007	2.01446e-005	2.03333e-005
     4	1.88755e-007	2.01446e-005	2.03334e-005
     5	1.8888e-007	2.01447e-005	2.03335e-005
     6	1.89005e-007	2.01447e-005	2.03337e-005
     7	1.89129e-007	2.01447e-005	2.03338e-005
     8	1.89254e-007	2.01447e-005	2.0334e-005
     9	1.89378e-007	2.01447e-005	2.03341e-005
    10	1.89503e-007	2.01448e-005	2.03343e-005
    11	1.89627e-007	2.01448e-005	2.03344e-005
    12	1.89752e-007	2.01448e-005	2.03346e-005
    13	1.89876e-007	2.01448e-005	2.03347e-005
    14	1.9e-007	2.01448e-005	2.03348e-005
    15	1.90124e-007	2.01449e-005	2.0335e-005
    16	1.90248e-007	2.01449e-005	2.03351e-005
    17	1.90372e-007	2.01449e-005	2.03353e-005
    18	1.90496e-007	2.01449e-005	2.03354e-005
    19	1.9062e-007	2.01449e-005	2.03356e-005
    20	1.90744e-007	2.0145e-005	2.03357e-005
    21	1.90868e-007	2.0145e-005	2.03358e-005
    22	1.90991e-007	2.0145e-005	2.0336e-005
    23	1.91114e-007	2.0145e-005	2.03361e-005
    24	1.91238e-007	2.0145e-005	2.03363e-005
    25	1.91362e-007	2.01451e-005	2.03364e-005
    26	1.91485e-007	2.01451e-005	2.03366e-005
    27	1.9161e-007	2.01451e-005	2.03367e-005
    28	1.91732e-007	2.01451e-005	2.03369e-005
    29	1.91857e-007	2.01451e-005	2.0337e-005
    30	1.9198e-007	2.01452e-005	2.03371e-005
    31	1.92102e-007	2.01452e-005	2.03373e-005
    32	1.92225e-007	2.01452e-005	2.03374e-005
    33	1.92349e-007	2.01452e-005	2.03376e-005
    34	1.92473e-007	2.01452e-005	2.03377e-005
    35	1.92595e-007	2.01453e-005	2.03378e-005
    36	1.92718e-007	2.01453e-005	2.0338e-005
    37	1.92842e-007	2.01453e-005	2.03381e-005
    38	1.92965e-007	2.01453e-005	2.03383e-005
    39	1.93088e-007	2.01453e-005	2.03384e-005
    40	1.93211e-007	2.01453e-005	2.03386e-005
    41	1.93333e-007	2.01454e-005	2.03387e-005
    42	1.93456e-007	2.01454e-005	2.03388e-005
    43	1.93579e-007	2.01454e-005	2.0339e-005
    44	1.93702e-007	2.01454e-005	2.03391e-005
    45	1.93824e-007	2.01454e-005	2.03393e-005
    46	1.93947e-007	2.01455e-005	2.03394e-005
    47	1.94069e-007	2.01455e-005	2.03396e-005
    48	1.94192e-007	2.01455e-005	2.03397e-005
    49	1.94314e-007	2.01455e-005	2.03398e-005
    50	1.94437e-007	2.01455e-005	2.034e-005
    51	1.94559e-007	2.01456e-005	2.03401e-005
    52	1.94681e-007	2.01456e-005	2.03403e-005
    53	1.94803e-007	2.01456e-005	2.03404e-005
    54	1.94926e-007	2.01456e-005	2.03405e-005
    55	1.95048e-007	2.01456e-005	2.03407e-005
    56	1.9517e-007	2.01457e-005	2.03408e-005
    57	1.95292e-007	2.01457e-005	2.0341e-005
    58	1.95414e-007	2.01457e-005	2.03411e-005
    59	1.95536e-007	2.01457e-005	2.03412e-005
    60	1.95658e-007	2.01457e-005	2.03414e-005
    61	1.9578e-007	2.01457e-005	2.03415e-005
    62	1.95902e-007	2.01458e-005	2.03417e-005
    63	1.96024e-007	2.01458e-005	2.03418e-005
    64	1.96145e-007	2.01458e-005	2.03419e-005
    65	1.96267e-007	2.01458e-005	2.03421e-005
    66	1.96389e-007	2.01458e-005	2.03422e-005
    67	1.96511e-007	2.01459e-005	2.03424e-005
    68	1.96632e-007	2.01459e-005	2.03425e-005
    69	1.96755e-007	2.01459e-005	2.03426e-005
    70	1.96877e-007	2.01459e-005	2.03428e-005
    71	1.96999e-007	2.01459e-005	2.03429e-005
    72	1.9712e-007	2.01459e-005	2.03431e-005
    73	1.97242e-007	2.0146e-005	2.03432e-005
    74	1.97363e-007	2.0146e-005	2.03433e-005
    75	1.97484e-007	2.0146e-005	2.03435e-005
    76	1.97606e-007	2.0146e-005	2.03436e-005
    77	1.97727e-007	2.0146e-005	2.03438e-005
    78	1.97849e-007	2.01461e-005	2.03439e-005
    79	1.9797e-007	2.01461e-005	2.0344e-005
    80	1.98091e-007	2.01461e-005	2.03442e-005
    81	1.98213e-007	2.01461e-005	2.03443e-005
    82	1.98333e-007	2.01461e-005	2.03445e-005
    83	1.98454e-007	2.01462e-005	2.03446e-005
    84	1.98576e-007	2.01462e-005	2.03447e-005
    85	1.98698e-007	2.01462e-005	2.03449e-005
    86	1.98819e-007	2.01462e-005	2.0345e-005
    87	1.9894e-007	2.01462e-005	2.03452e-005
    88	1.9906e-007	2.01462e-005	2.03453e-005
    89	1.99181e-007	2.01463e-005	2.03454e-005
    90	1.99302e-007	2.01463e-005	2.03456e-005
    91	1.99423e-007	2.01463e-005	2.03457e-005
    92	1.99545e-007	2.01463e-005	2.03459e-005
    93	1.99666e-007	2.01463e-005	2.0346e-005
    94	1.99786e-007	2.01464e-005	2.03461e-005
    95	1.99906e-007	2.01464e-005	2.03463e-005
    96	2.00027e-007	2.01464e-005	2.03464e-005
    97	2.00148e-007	2.01464e-005	2.03466e-005
    98	2.00269e-007	2.01464e-005	2.03467e-005
    99	2.0039e-007	2.01464e-005	2.03468e-005
   100	2.00511e-007	2.01465e-005	2.0347e-005
   101	2.00631e-007	2.01465e-005	2.03471e-005

Measurement: tr2
  step	tr2	FROM	TO
     1	4.24943e-007	6.12087e-005	6.16336e-005
     2	4.20072e-007	6.12083e-005	6.16284e-005
     3	4.1621e-007	6.12079e-005	6.16241e-005
     4	4.24429e-007	6.1208e-005	6.16324e-005
     5	4.24638e-007	6.12076e-005	6.16323e-005
     6	4.24822e-007	6.12073e-005	6.16321e-005
     7	4.24975e-007	6.1207e-005	6.16319e-005
     8	4.19618e-007	6.12066e-005	6.16262e-005
     9	4.19963e-007	6.12063e-005	6.16262e-005
    10	4.19733e-007	6.12057e-005	6.16255e-005
    11	4.20118e-007	6.12054e-005	6.16255e-005
    12	4.19414e-007	6.12051e-005	6.16245e-005
    13	4.18633e-007	6.12047e-005	6.16233e-005
    14	4.18155e-007	6.12044e-005	6.16225e-005
    15	4.17641e-007	6.1204e-005	6.16217e-005
    16	4.17087e-007	6.12037e-005	6.16208e-005
    17	4.1513e-007	6.12034e-005	6.16185e-005
    18	4.14104e-007	6.1203e-005	6.16171e-005
    19	4.13078e-007	6.12027e-005	6.16158e-005
    20	4.1231e-007	6.12024e-005	6.16147e-005
    21	4.11486e-007	6.1202e-005	6.16135e-005
    22	4.10609e-007	6.12023e-005	6.16129e-005
    23	4.11208e-007	6.12021e-005	6.16133e-005
    24	4.24536e-007	6.12014e-005	6.16259e-005
    25	4.14462e-007	6.12014e-005	6.16159e-005
    26	4.1854e-007	6.12007e-005	6.16192e-005
    27	4.16362e-007	6.12009e-005	6.16173e-005
    28	4.11866e-007	6.12007e-005	6.16126e-005
    29	4.10457e-007	6.11998e-005	6.16103e-005
    30	4.19271e-007	6.11996e-005	6.16189e-005
    31	4.2502e-007	6.11991e-005	6.16241e-005
    32	4.12333e-007	6.11992e-005	6.16115e-005
    33	4.21794e-007	6.11985e-005	6.16203e-005
    34	4.19069e-007	6.11982e-005	6.16173e-005
    35	4.10175e-007	6.11984e-005	6.16086e-005
    36	4.13711e-007	6.11976e-005	6.16113e-005
    37	4.1516e-007	6.11972e-005	6.16123e-005
    38	4.11013e-007	6.11968e-005	6.16078e-005
    39	4.12427e-007	6.11965e-005	6.16089e-005
    40	4.16059e-007	6.1196e-005	6.16121e-005
    41	4.15878e-007	6.11957e-005	6.16115e-005
    42	4.15887e-007	6.11953e-005	6.16112e-005
    43	4.15859e-007	6.1195e-005	6.16109e-005
    44	4.15793e-007	6.11947e-005	6.16105e-005
    45	4.15691e-007	6.11944e-005	6.16101e-005
    46	4.15665e-007	6.11941e-005	6.16098e-005
    47	4.15887e-007	6.11938e-005	6.16097e-005
    48	4.16186e-007	6.11935e-005	6.16097e-005
    49	4.16564e-007	6.11932e-005	6.16097e-005
    50	4.17011e-007	6.11929e-005	6.16099e-005
    51	4.17441e-007	6.11925e-005	6.161e-005
    52	4.17945e-007	6.11922e-005	6.16101e-005
    53	4.18532e-007	6.11919e-005	6.16104e-005
    54	4.19219e-007	6.11915e-005	6.16107e-005
    55	4.20036e-007	6.11912e-005	6.16112e-005
    56	4.10292e-007	6.11911e-005	6.16014e-005
    57	4.1052e-007	6.11907e-005	6.16013e-005
    58	4.10747e-007	6.11904e-005	6.16012e-005
    59	4.12249e-007	6.11901e-005	6.16024e-005
    60	4.12256e-007	6.11898e-005	6.16021e-005
    61	4.12276e-007	6.11895e-005	6.16018e-005
    62	4.12311e-007	6.11892e-005	6.16015e-005
    63	4.12362e-007	6.11889e-005	6.16012e-005
    64	4.12428e-007	6.11886e-005	6.1601e-005
    65	4.19817e-007	6.11882e-005	6.1608e-005
    66	4.24512e-007	6.11878e-005	6.16123e-005
    67	4.24543e-007	6.11878e-005	6.16123e-005
    68	4.23759e-007	6.11874e-005	6.16112e-005
    69	4.23615e-007	6.11871e-005	6.16107e-005
    70	4.23459e-007	6.11867e-005	6.16102e-005
    71	4.23373e-007	6.11864e-005	6.16098e-005
    72	4.23458e-007	6.11859e-005	6.16094e-005
    73	4.23437e-007	6.11856e-005	6.16091e-005
    74	4.23396e-007	6.11853e-005	6.16087e-005
    75	4.23354e-007	6.1185e-005	6.16083e-005
    76	4.23398e-007	6.11847e-005	6.16081e-005
    77	4.23349e-007	6.11843e-005	6.16077e-005
    78	4.19675e-007	6.11841e-005	6.16037e-005
    79	4.19356e-007	6.1184e-005	6.16033e-005
    80	4.15154e-007	6.11837e-005	6.15989e-005
    81	4.10914e-007	6.11835e-005	6.15944e-005
    82	4.1708e-007	6.11834e-005	6.16005e-005
    83	4.16574e-007	6.11831e-005	6.15997e-005
    84	4.11124e-007	6.11829e-005	6.15941e-005
    85	4.23635e-007	6.11825e-005	6.16061e-005
    86	4.16261e-007	6.1182e-005	6.15982e-005
    87	4.15139e-007	6.1182e-005	6.15971e-005
    88	4.13283e-007	6.11816e-005	6.15949e-005
    89	4.18131e-007	6.11814e-005	6.15995e-005
    90	4.12315e-007	6.11808e-005	6.15931e-005
    91	4.18387e-007	6.11805e-005	6.15989e-005
    92	4.15413e-007	6.11803e-005	6.15957e-005
    93	4.1624e-007	6.11798e-005	6.15961e-005
    94	4.17981e-007	6.11795e-005	6.15975e-005
    95	4.10959e-007	6.11795e-005	6.15904e-005
    96	4.10363e-007	6.11788e-005	6.15892e-005
    97	4.24412e-007	6.11787e-005	6.16031e-005
    98	4.14855e-007	6.11782e-005	6.1593e-005
    99	4.15094e-007	6.11778e-005	6.15929e-005
   100	4.13661e-007	6.11777e-005	6.15913e-005
   101	4.23877e-007	6.11773e-005	6.16012e-005

Measurement: vth
  step	v(n004)	at
     1	1.88283	2.01041e-005
     2	1.88276	2.01041e-005
     3	1.88269	2.01041e-005
     4	1.88261	2.01041e-005
     5	1.88254	2.01041e-005
     6	1.88247	2.01041e-005
     7	1.8824	2.01041e-005
     8	1.88233	2.01041e-005
     9	1.88226	2.01041e-005
    10	1.88218	2.01041e-005
    11	1.88211	2.01041e-005
    12	1.88204	2.01041e-005
    13	1.88197	2.01041e-005
    14	1.88189	2.01041e-005
    15	1.88182	2.01041e-005
    16	1.88174	2.01041e-005
    17	1.88167	2.01041e-005
    18	1.8816	2.01041e-005
    19	1.88152	2.01041e-005
    20	1.88145	2.01041e-005
    21	1.88137	2.01041e-005
    22	1.8813	2.01041e-005
    23	1.88122	2.01041e-005
    24	1.88114	2.01041e-005
    25	1.88107	2.01041e-005
    26	1.88099	2.01041e-005
    27	1.88091	2.01041e-005
    28	1.88084	2.01041e-005
    29	1.88076	2.0104e-005
    30	1.88068	2.0104e-005
    31	1.8806	2.0104e-005
    32	1.88053	2.0104e-005
    33	1.88045	2.0104e-005
    34	1.88037	2.0104e-005
    35	1.88029	2.0104e-005
    36	1.88021	2.0104e-005
    37	1.88013	2.0104e-005
    38	1.88005	2.0104e-005
    39	1.87997	2.0104e-005
    40	1.87989	2.0104e-005
    41	1.87981	2.0104e-005
    42	1.87973	2.0104e-005
    43	1.87965	2.0104e-005
    44	1.87957	2.0104e-005
    45	1.87948	2.0104e-005
    46	1.8794	2.0104e-005
    47	1.87932	2.0104e-005
    48	1.87924	2.0104e-005
    49	1.87915	2.0104e-005
    50	1.87907	2.0104e-005
    51	1.87899	2.0104e-005
    52	1.8789	2.0104e-005
    53	1.87882	2.0104e-005
    54	1.87874	2.0104e-005
    55	1.87865	2.0104e-005
    56	1.87857	2.0104e-005
    57	1.87848	2.0104e-005
    58	1.87839	2.0104e-005
    59	1.87831	2.0104e-005
    60	1.87822	2.0104e-005
    61	1.87814	2.0104e-005
    62	1.87805	2.0104e-005
    63	1.87796	2.0104e-005
    64	1.87788	2.0104e-005
    65	1.87779	2.01039e-005
    66	1.8777	2.01039e-005
    67	1.87761	2.01039e-005
    68	1.87752	2.01039e-005
    69	1.87744	2.01039e-005
    70	1.87735	2.01039e-005
    71	1.87726	2.01039e-005
    72	1.87717	2.01039e-005
    73	1.87708	2.01039e-005
    74	1.87699	2.01039e-005
    75	1.8769	2.01039e-005
    76	1.87681	2.01039e-005
    77	1.87672	2.01039e-005
    78	1.87663	2.01039e-005
    79	1.87653	2.01039e-005
    80	1.87644	2.01039e-005
    81	1.87635	2.01039e-005
    82	1.87626	2.01039e-005
    83	1.87617	2.01039e-005
    84	1.87607	2.01039e-005
    85	1.87598	2.01039e-005
    86	1.87589	2.01039e-005
    87	1.87579	2.01039e-005
    88	1.8757	2.01039e-005
    89	1.8756	2.01039e-005
    90	1.87551	2.01039e-005
    91	1.87542	2.01039e-005
    92	1.87532	2.01039e-005
    93	1.87522	2.01039e-005
    94	1.87513	2.01039e-005
    95	1.87503	2.01039e-005
    96	1.87494	2.01039e-005
    97	1.87484	2.01038e-005
    98	1.87474	2.01038e-005
    99	1.87465	2.01038e-005
   100	1.87455	2.01038e-005
   101	1.87445	2.01038e-005


Date: Wed Mar 23 09:34:16 2022
Total elapsed time: 1.429 seconds.

tnom = 27
temp = 27
method = modified trap
totiter = 2342
traniter = 2312
tranpoints = 1115
accept = 1092
rejected = 23
matrix size = 11
fillins = 0
solver = Normal
Matrix Compiler1: 674 bytes object code size  0.1/0.1/[0.1]
Matrix Compiler2: off  [0.1]/0.1/0.1

