Circuit: * C:\Users\user\Documents\LTspiceXVII\file\Montecarlo\monte_SiC.asc

Direct Newton iteration for .op point succeeded.
.step tol1=0
.step tol1=0.01
.step tol1=0.02
.step tol1=0.03
.step tol1=0.04
.step tol1=0.05
.step tol1=0.06
.step tol1=0.07
.step tol1=0.08
.step tol1=0.09
.step tol1=0.1
.step tol1=0.11
.step tol1=0.12
.step tol1=0.13
.step tol1=0.14
.step tol1=0.15
.step tol1=0.16
.step tol1=0.17
.step tol1=0.18
.step tol1=0.19
.step tol1=0.2
.step tol1=0.21
.step tol1=0.22
.step tol1=0.23
.step tol1=0.24
.step tol1=0.25
.step tol1=0.26
.step tol1=0.27
.step tol1=0.28
.step tol1=0.29
.step tol1=0.3
.step tol1=0.31
.step tol1=0.32
.step tol1=0.33
.step tol1=0.34
.step tol1=0.35
.step tol1=0.36
.step tol1=0.37
.step tol1=0.38
.step tol1=0.39
.step tol1=0.4
.step tol1=0.41
.step tol1=0.42
.step tol1=0.43
.step tol1=0.44
.step tol1=0.45
.step tol1=0.46
.step tol1=0.47
.step tol1=0.48
.step tol1=0.49
.step tol1=0.5
.step tol1=0.51
.step tol1=0.52
.step tol1=0.53
.step tol1=0.54
.step tol1=0.55
.step tol1=0.56
.step tol1=0.57
.step tol1=0.58
.step tol1=0.59
.step tol1=0.6
.step tol1=0.61
.step tol1=0.62
.step tol1=0.63
.step tol1=0.64
.step tol1=0.65
.step tol1=0.66
.step tol1=0.67
.step tol1=0.68
.step tol1=0.69
.step tol1=0.7
.step tol1=0.71
.step tol1=0.72
.step tol1=0.73
.step tol1=0.74
.step tol1=0.75
.step tol1=0.76
.step tol1=0.77
.step tol1=0.78
.step tol1=0.79
.step tol1=0.8
.step tol1=0.81
.step tol1=0.82
.step tol1=0.83
.step tol1=0.84
.step tol1=0.85
.step tol1=0.86
.step tol1=0.87
.step tol1=0.88
.step tol1=0.89
.step tol1=0.9
.step tol1=0.91
.step tol1=0.92
.step tol1=0.93
.step tol1=0.94
.step tol1=0.95
.step tol1=0.96
.step tol1=0.97
.step tol1=0.98
.step tol1=0.99
.step tol1=1


Measurement: imax
  step	MAX(-i(v1))	FROM	TO
     1	9.80646	0	0.0001
     2	9.80633	0	0.0001
     3	9.8062	0	0.0001
     4	9.80606	0	0.0001
     5	9.80593	0	0.0001
     6	9.80579	0	0.0001
     7	9.80564	0	0.0001
     8	9.80552	0	0.0001
     9	9.80539	0	0.0001
    10	9.80524	0	0.0001
    11	9.80511	0	0.0001
    12	9.80498	0	0.0001
    13	9.80484	0	0.0001
    14	9.80471	0	0.0001
    15	9.8046	0	0.0001
    16	9.80445	0	0.0001
    17	9.80431	0	0.0001
    18	9.80418	0	0.0001
    19	9.80405	0	0.0001
    20	9.80392	0	0.0001
    21	9.80378	0	0.0001
    22	9.80365	0	0.0001
    23	9.80352	0	0.0001
    24	9.80338	0	0.0001
    25	9.80325	0	0.0001
    26	9.80312	0	0.0001
    27	9.80299	0	0.0001
    28	9.80285	0	0.0001
    29	9.80272	0	0.0001
    30	9.80259	0	0.0001
    31	9.80245	0	0.0001
    32	9.80232	0	0.0001
    33	9.80219	0	0.0001
    34	9.80206	0	0.0001
    35	9.80192	0	0.0001
    36	9.80179	0	0.0001
    37	9.80166	0	0.0001
    38	9.80153	0	0.0001
    39	9.80139	0	0.0001
    40	9.80126	0	0.0001
    41	9.80113	0	0.0001
    42	9.80099	0	0.0001
    43	9.80086	0	0.0001
    44	9.80073	0	0.0001
    45	9.80059	0	0.0001
    46	9.80046	0	0.0001
    47	9.80033	0	0.0001
    48	9.80019	0	0.0001
    49	9.80006	0	0.0001
    50	9.79993	0	0.0001
    51	9.7998	0	0.0001
    52	9.79966	0	0.0001
    53	9.79953	0	0.0001
    54	9.7994	0	0.0001
    55	9.79926	0	0.0001
    56	9.79913	0	0.0001
    57	9.799	0	0.0001
    58	9.79887	0	0.0001
    59	9.79873	0	0.0001
    60	9.7986	0	0.0001
    61	9.79847	0	0.0001
    62	9.79833	0	0.0001
    63	9.7982	0	0.0001
    64	9.79807	0	0.0001
    65	9.79793	0	0.0001
    66	9.7978	0	0.0001
    67	9.79767	0	0.0001
    68	9.79753	0	0.0001
    69	9.7974	0	0.0001
    70	9.79727	0	0.0001
    71	9.79713	0	0.0001
    72	9.797	0	0.0001
    73	9.79687	0	0.0001
    74	9.79673	0	0.0001
    75	9.7966	0	0.0001
    76	9.79647	0	0.0001
    77	9.79634	0	0.0001
    78	9.7962	0	0.0001
    79	9.79607	0	0.0001
    80	9.79594	0	0.0001
    81	9.79581	0	0.0001
    82	9.79568	0	0.0001
    83	9.79554	0	0.0001
    84	9.79541	0	0.0001
    85	9.79528	0	0.0001
    86	9.79513	0	0.0001
    87	9.795	0	0.0001
    88	9.79487	0	0.0001
    89	9.79474	0	0.0001
    90	9.7946	0	0.0001
    91	9.79447	0	0.0001
    92	9.79434	0	0.0001
    93	9.7942	0	0.0001
    94	9.79407	0	0.0001
    95	9.79393	0	0.0001
    96	9.7938	0	0.0001
    97	9.79367	0	0.0001
    98	9.79353	0	0.0001
    99	9.79343	0	0.0001
   100	9.79328	0	0.0001
   101	9.79316	0	0.0001

Measurement: tr1
  step	tr1	FROM	TO
     1	1.8838e-007	2.01446e-005	2.0333e-005
     2	1.88658e-007	2.01447e-005	2.03334e-005
     3	1.88933e-007	2.01449e-005	2.03338e-005
     4	1.89205e-007	2.0145e-005	2.03342e-005
     5	1.89474e-007	2.01452e-005	2.03346e-005
     6	1.89741e-007	2.01453e-005	2.03351e-005
     7	1.90005e-007	2.01455e-005	2.03355e-005
     8	1.90347e-007	2.01456e-005	2.0336e-005
     9	1.9062e-007	2.01458e-005	2.03364e-005
    10	1.9089e-007	2.01459e-005	2.03368e-005
    11	1.91162e-007	2.0146e-005	2.03372e-005
    12	1.91434e-007	2.01462e-005	2.03376e-005
    13	1.91705e-007	2.01463e-005	2.0338e-005
    14	1.91977e-007	2.01465e-005	2.03384e-005
    15	1.92248e-007	2.01466e-005	2.03388e-005
    16	1.92499e-007	2.01467e-005	2.03392e-005
    17	1.9275e-007	2.01469e-005	2.03396e-005
    18	1.93e-007	2.0147e-005	2.034e-005
    19	1.9325e-007	2.01471e-005	2.03404e-005
    20	1.93498e-007	2.01473e-005	2.03408e-005
    21	1.93744e-007	2.01474e-005	2.03412e-005
    22	1.9399e-007	2.01476e-005	2.03415e-005
    23	1.94235e-007	2.01477e-005	2.03419e-005
    24	1.94479e-007	2.01478e-005	2.03423e-005
    25	1.94724e-007	2.0148e-005	2.03427e-005
    26	1.94977e-007	2.01481e-005	2.03431e-005
    27	1.95229e-007	2.01482e-005	2.03435e-005
    28	1.95487e-007	2.01484e-005	2.03438e-005
    29	1.95747e-007	2.01485e-005	2.03442e-005
    30	1.96006e-007	2.01486e-005	2.03446e-005
    31	1.96265e-007	2.01487e-005	2.0345e-005
    32	1.96523e-007	2.01489e-005	2.03454e-005
    33	1.96781e-007	2.0149e-005	2.03458e-005
    34	1.97038e-007	2.01491e-005	2.03462e-005
    35	1.97291e-007	2.01493e-005	2.03466e-005
    36	1.97543e-007	2.01494e-005	2.03469e-005
    37	1.97795e-007	2.01495e-005	2.03473e-005
    38	1.98046e-007	2.01497e-005	2.03477e-005
    39	1.98296e-007	2.01498e-005	2.03481e-005
    40	1.98547e-007	2.01499e-005	2.03485e-005
    41	1.98796e-007	2.015e-005	2.03488e-005
    42	1.99046e-007	2.01502e-005	2.03492e-005
    43	1.99295e-007	2.01503e-005	2.03496e-005
    44	1.99544e-007	2.01504e-005	2.035e-005
    45	1.99793e-007	2.01505e-005	2.03503e-005
    46	2.00042e-007	2.01507e-005	2.03507e-005
    47	2.0029e-007	2.01508e-005	2.03511e-005
    48	2.00538e-007	2.01509e-005	2.03515e-005
    49	2.00787e-007	2.0151e-005	2.03518e-005
    50	2.01035e-007	2.01512e-005	2.03522e-005
    51	2.01283e-007	2.01513e-005	2.03526e-005
    52	2.01531e-007	2.01514e-005	2.03529e-005
    53	2.01795e-007	2.01515e-005	2.03533e-005
    54	2.02084e-007	2.01517e-005	2.03537e-005
    55	2.02373e-007	2.01518e-005	2.03542e-005
    56	2.02662e-007	2.01519e-005	2.03546e-005
    57	2.0295e-007	2.0152e-005	2.0355e-005
    58	2.03238e-007	2.01522e-005	2.03554e-005
    59	2.03554e-007	2.01523e-005	2.03558e-005
    60	2.03841e-007	2.01524e-005	2.03562e-005
    61	2.04127e-007	2.01525e-005	2.03566e-005
    62	2.04413e-007	2.01526e-005	2.03571e-005
    63	2.04699e-007	2.01528e-005	2.03575e-005
    64	2.04985e-007	2.01529e-005	2.03579e-005
    65	2.05277e-007	2.0153e-005	2.03583e-005
    66	2.05578e-007	2.01531e-005	2.03587e-005
    67	2.05878e-007	2.01532e-005	2.03591e-005
    68	2.06177e-007	2.01534e-005	2.03595e-005
    69	2.06477e-007	2.01535e-005	2.036e-005
    70	2.06796e-007	2.01536e-005	2.03604e-005
    71	2.07094e-007	2.01537e-005	2.03608e-005
    72	2.07393e-007	2.01538e-005	2.03612e-005
    73	2.07692e-007	2.0154e-005	2.03616e-005
    74	2.0799e-007	2.01541e-005	2.03621e-005
    75	2.08288e-007	2.01542e-005	2.03625e-005
    76	2.08586e-007	2.01543e-005	2.03629e-005
    77	2.08884e-007	2.01544e-005	2.03633e-005
    78	2.09181e-007	2.01545e-005	2.03637e-005
    79	2.09478e-007	2.01547e-005	2.03641e-005
    80	2.09776e-007	2.01548e-005	2.03646e-005
    81	2.10073e-007	2.01549e-005	2.0365e-005
    82	2.1037e-007	2.0155e-005	2.03654e-005
    83	2.10666e-007	2.01551e-005	2.03658e-005
    84	2.10962e-007	2.01552e-005	2.03662e-005
    85	2.11259e-007	2.01554e-005	2.03666e-005
    86	2.11554e-007	2.01555e-005	2.0367e-005
    87	2.1185e-007	2.01556e-005	2.03674e-005
    88	2.13276e-007	2.01557e-005	2.0369e-005
    89	2.13553e-007	2.01558e-005	2.03694e-005
    90	2.13829e-007	2.01559e-005	2.03698e-005
    91	2.14098e-007	2.01561e-005	2.03702e-005
    92	2.14081e-007	2.01561e-005	2.03702e-005
    93	2.14411e-007	2.01562e-005	2.03706e-005
    94	2.15044e-007	2.0156e-005	2.03711e-005
    95	2.1498e-007	2.01563e-005	2.03713e-005
    96	2.15666e-007	2.01562e-005	2.03719e-005
    97	2.13175e-007	2.01572e-005	2.03704e-005
    98	2.16084e-007	2.01567e-005	2.03728e-005
    99	2.15958e-007	2.01578e-005	2.03738e-005
   100	2.1682e-007	2.01566e-005	2.03734e-005
   101	2.15264e-007	2.01578e-005	2.0373e-005

Measurement: tr2
  step	tr2	FROM	TO
     1	4.24943e-007	6.12087e-005	6.16336e-005
     2	4.24884e-007	6.12081e-005	6.1633e-005
     3	4.24948e-007	6.12076e-005	6.16326e-005
     4	4.19299e-007	6.12071e-005	6.16264e-005
     5	4.23278e-007	6.1207e-005	6.16303e-005
     6	4.17313e-007	6.12063e-005	6.16236e-005
     7	4.23763e-007	6.12061e-005	6.16298e-005
     8	4.24135e-007	6.12056e-005	6.16298e-005
     9	4.24157e-007	6.12053e-005	6.16294e-005
    10	4.19078e-007	6.12047e-005	6.16238e-005
    11	4.23286e-007	6.12039e-005	6.16272e-005
    12	4.23471e-007	6.12034e-005	6.16269e-005
    13	4.23654e-007	6.1203e-005	6.16266e-005
    14	4.24126e-007	6.12025e-005	6.16266e-005
    15	4.22552e-007	6.12024e-005	6.16249e-005
    16	4.18426e-007	6.12016e-005	6.162e-005
    17	4.17783e-007	6.12012e-005	6.16189e-005
    18	4.15682e-007	6.12007e-005	6.16164e-005
    19	4.13963e-007	6.12003e-005	6.16142e-005
    20	4.1274e-007	6.11998e-005	6.16126e-005
    21	4.11329e-007	6.11994e-005	6.16107e-005
    22	4.09479e-007	6.1199e-005	6.16085e-005
    23	4.10199e-007	6.11986e-005	6.16088e-005
    24	4.11232e-007	6.11982e-005	6.16094e-005
    25	4.12388e-007	6.11978e-005	6.16101e-005
    26	4.13601e-007	6.11974e-005	6.1611e-005
    27	4.15574e-007	6.1198e-005	6.16136e-005
    28	4.16928e-007	6.11968e-005	6.16137e-005
    29	4.14075e-007	6.11966e-005	6.16107e-005
    30	4.09276e-007	6.11961e-005	6.16054e-005
    31	4.11961e-007	6.11956e-005	6.16075e-005
    32	4.15345e-007	6.11959e-005	6.16113e-005
    33	4.18424e-007	6.11952e-005	6.16136e-005
    34	4.13607e-007	6.11947e-005	6.16084e-005
    35	4.21433e-007	6.11946e-005	6.16161e-005
    36	4.13007e-007	6.11937e-005	6.16067e-005
    37	4.13602e-007	6.11939e-005	6.16075e-005
    38	4.12884e-007	6.11937e-005	6.16065e-005
    39	4.14473e-007	6.11931e-005	6.16076e-005
    40	4.10826e-007	6.11925e-005	6.16033e-005
    41	4.1455e-007	6.11921e-005	6.16066e-005
    42	4.15813e-007	6.11915e-005	6.16073e-005
    43	4.19662e-007	6.11915e-005	6.16111e-005
    44	4.1653e-007	6.11916e-005	6.16081e-005
    45	4.13465e-007	6.11912e-005	6.16047e-005
    46	4.15368e-007	6.11906e-005	6.1606e-005
    47	4.11939e-007	6.11904e-005	6.16024e-005
    48	4.1456e-007	6.11899e-005	6.16045e-005
    49	4.16269e-007	6.11898e-005	6.16061e-005
    50	4.10879e-007	6.11894e-005	6.16003e-005
    51	4.1317e-007	6.11888e-005	6.16019e-005
    52	4.15449e-007	6.11888e-005	6.16043e-005
    53	4.14311e-007	6.11879e-005	6.16022e-005
    54	4.15242e-007	6.11882e-005	6.16034e-005
    55	4.15318e-007	6.11878e-005	6.16031e-005
    56	4.12252e-007	6.11871e-005	6.15994e-005
    57	4.17652e-007	6.11867e-005	6.16043e-005
    58	4.15408e-007	6.11869e-005	6.16023e-005
    59	4.10019e-007	6.11861e-005	6.15961e-005
    60	4.0989e-007	6.11858e-005	6.15957e-005
    61	4.09761e-007	6.11855e-005	6.15952e-005
    62	4.09626e-007	6.11851e-005	6.15948e-005
    63	4.09599e-007	6.11848e-005	6.15944e-005
    64	4.10023e-007	6.11845e-005	6.15945e-005
    65	4.10434e-007	6.11842e-005	6.15947e-005
    66	4.10832e-007	6.11839e-005	6.15947e-005
    67	4.11218e-007	6.11836e-005	6.15948e-005
    68	4.11594e-007	6.11833e-005	6.15949e-005
    69	4.1196e-007	6.1183e-005	6.1595e-005
    70	4.12318e-007	6.11827e-005	6.1595e-005
    71	4.13089e-007	6.11824e-005	6.15955e-005
    72	4.13811e-007	6.11821e-005	6.15959e-005
    73	4.14492e-007	6.11818e-005	6.15963e-005
    74	4.15137e-007	6.11816e-005	6.15967e-005
    75	4.1045e-007	6.11817e-005	6.15922e-005
    76	4.2206e-007	6.11811e-005	6.16031e-005
    77	4.14162e-007	6.1181e-005	6.15952e-005
    78	4.13395e-007	6.11808e-005	6.15942e-005
    79	4.21507e-007	6.11802e-005	6.16017e-005
    80	4.13943e-007	6.11799e-005	6.15939e-005
    81	4.22017e-007	6.11798e-005	6.16018e-005
    82	4.22034e-007	6.11793e-005	6.16014e-005
    83	4.22046e-007	6.11794e-005	6.16015e-005
    84	4.20982e-007	6.11788e-005	6.15998e-005
    85	4.22029e-007	6.11789e-005	6.1601e-005
    86	4.16151e-007	6.11786e-005	6.15947e-005
    87	4.20156e-007	6.1178e-005	6.15982e-005
    88	4.14764e-007	6.11782e-005	6.1593e-005
    89	4.17624e-007	6.11779e-005	6.15955e-005
    90	4.2154e-007	6.11776e-005	6.15991e-005
    91	4.21853e-007	6.11769e-005	6.15988e-005
    92	4.2181e-007	6.11767e-005	6.15985e-005
    93	4.1663e-007	6.11764e-005	6.1593e-005
    94	4.13788e-007	6.11762e-005	6.159e-005
    95	4.21704e-007	6.1176e-005	6.15977e-005
    96	4.21629e-007	6.11756e-005	6.15973e-005
    97	4.21002e-007	6.11759e-005	6.15969e-005
    98	4.21516e-007	6.11752e-005	6.15967e-005
    99	4.14616e-007	6.11752e-005	6.15899e-005
   100	4.22087e-007	6.1175e-005	6.1597e-005
   101	4.20433e-007	6.11748e-005	6.15953e-005

Measurement: vth
  step	v(n004)	at
     1	1.88283	2.01041e-005
     2	1.88236	2.01041e-005
     3	1.88191	2.01042e-005
     4	1.88149	2.01042e-005
     5	1.88108	2.01042e-005
     6	1.8807	2.01043e-005
     7	1.88033	2.01043e-005
     8	1.87999	2.01043e-005
     9	1.87967	2.01044e-005
    10	1.87938	2.01044e-005
    11	1.8791	2.01045e-005
    12	1.87885	2.01045e-005
    13	1.87863	2.01045e-005
    14	1.87842	2.01046e-005
    15	1.87824	2.01046e-005
    16	1.87809	2.01047e-005
    17	1.87796	2.01047e-005
    18	1.87786	2.01047e-005
    19	1.87778	2.01048e-005
    20	1.87773	2.01048e-005
    21	1.87771	2.01049e-005
    22	1.87772	2.01049e-005
    23	1.87775	2.0105e-005
    24	1.87781	2.0105e-005
    25	1.8779	2.01051e-005
    26	1.87802	2.01051e-005
    27	1.87817	2.01052e-005
    28	1.87834	2.01052e-005
    29	1.87855	2.01053e-005
    30	1.87879	2.01053e-005
    31	1.87907	2.01054e-005
    32	1.87937	2.01054e-005
    33	1.87971	2.01055e-005
    34	1.88008	2.01056e-005
    35	1.88048	2.01056e-005
    36	1.88092	2.01057e-005
    37	1.88139	2.01058e-005
    38	1.8819	2.01058e-005
    39	1.88245	2.01059e-005
    40	1.88303	2.01059e-005
    41	1.88365	2.0106e-005
    42	1.8843	2.01061e-005
    43	1.88499	2.01062e-005
    44	1.88573	2.01062e-005
    45	1.8865	2.01063e-005
    46	1.88731	2.01064e-005
    47	1.88816	2.01065e-005
    48	1.88906	2.01065e-005
    49	1.88999	2.01066e-005
    50	1.89097	2.01067e-005
    51	1.89199	2.01068e-005
    52	1.89305	2.01069e-005
    53	1.89416	2.01069e-005
    54	1.89531	2.0107e-005
    55	1.89651	2.01071e-005
    56	1.89776	2.01072e-005
    57	1.89905	2.01073e-005
    58	1.90039	2.01074e-005
    59	1.90178	2.01075e-005
    60	1.90322	2.01076e-005
    61	1.90471	2.01077e-005
    62	1.90624	2.01078e-005
    63	1.90783	2.01079e-005
    64	1.90948	2.0108e-005
    65	1.91117	2.01081e-005
    66	1.91292	2.01082e-005
    67	1.91472	2.01083e-005
    68	1.91658	2.01084e-005
    69	1.9185	2.01086e-005
    70	1.92047	2.01087e-005
    71	1.9225	2.01088e-005
    72	1.92459	2.01089e-005
    73	1.92673	2.0109e-005
    74	1.92894	2.01092e-005
    75	1.9312	2.01093e-005
    76	1.93353	2.01094e-005
    77	1.93593	2.01096e-005
    78	1.93838	2.01097e-005
    79	1.9409	2.01098e-005
    80	1.94348	2.011e-005
    81	1.94613	2.01101e-005
    82	1.94885	2.01103e-005
    83	1.95163	2.01104e-005
    84	1.95188	2.01105e-005
    85	1.95077	2.01105e-005
    86	1.94965	2.01105e-005
    87	1.94854	2.01105e-005
    88	1.94742	2.01105e-005
    89	1.94631	2.01105e-005
    90	1.9452	2.01105e-005
    91	1.94409	2.01105e-005
    92	1.96266	2.01111e-005
    93	1.95985	2.0111e-005
    94	1.92459	2.01098e-005
    95	1.93545	2.01103e-005
    96	1.91684	2.01096e-005
    97	1.89095	2.01088e-005
    98	1.93844	2.01105e-005
    99	1.87886	2.01084e-005
   100	1.90961	2.01096e-005
   101	1.87646	2.01084e-005


Date: Wed Mar 23 09:34:32 2022
Total elapsed time: 1.272 seconds.

tnom = 27
temp = 27
method = modified trap
totiter = 2549
traniter = 2519
tranpoints = 1134
accept = 1108
rejected = 26
matrix size = 11
fillins = 0
solver = Normal
Matrix Compiler1: 674 bytes object code size  0.1/0.1/[0.1]
Matrix Compiler2: off  [0.1]/0.1/0.1

