Circuit: * C:\Users\user\Documents\LTspiceXVII\file\Montecarlo\monte_SiC.asc

Direct Newton iteration for .op point succeeded.
.step tol1=0
.step tol1=0.01
.step tol1=0.02
.step tol1=0.03
.step tol1=0.04
.step tol1=0.05
.step tol1=0.06
.step tol1=0.07
.step tol1=0.08
.step tol1=0.09
.step tol1=0.1
.step tol1=0.11
.step tol1=0.12
.step tol1=0.13
.step tol1=0.14
.step tol1=0.15
.step tol1=0.16
.step tol1=0.17
.step tol1=0.18
.step tol1=0.19
.step tol1=0.2
.step tol1=0.21
.step tol1=0.22
.step tol1=0.23
.step tol1=0.24
.step tol1=0.25
.step tol1=0.26
.step tol1=0.27
.step tol1=0.28
.step tol1=0.29
.step tol1=0.3
.step tol1=0.31
.step tol1=0.32
.step tol1=0.33
.step tol1=0.34
.step tol1=0.35
.step tol1=0.36
.step tol1=0.37
.step tol1=0.38
.step tol1=0.39
.step tol1=0.4
.step tol1=0.41
.step tol1=0.42
.step tol1=0.43
.step tol1=0.44
.step tol1=0.45
.step tol1=0.46
.step tol1=0.47
.step tol1=0.48
.step tol1=0.49
.step tol1=0.5
.step tol1=0.51
.step tol1=0.52
.step tol1=0.53
.step tol1=0.54
.step tol1=0.55
.step tol1=0.56
.step tol1=0.57
.step tol1=0.58
.step tol1=0.59
.step tol1=0.6
.step tol1=0.61
.step tol1=0.62
.step tol1=0.63
.step tol1=0.64
.step tol1=0.65
.step tol1=0.66
.step tol1=0.67
.step tol1=0.68
.step tol1=0.69
.step tol1=0.7
.step tol1=0.71
.step tol1=0.72
.step tol1=0.73
.step tol1=0.74
.step tol1=0.75
.step tol1=0.76
.step tol1=0.77
.step tol1=0.78
.step tol1=0.79
.step tol1=0.8
.step tol1=0.81
.step tol1=0.82
.step tol1=0.83
.step tol1=0.84
.step tol1=0.85
.step tol1=0.86
.step tol1=0.87
.step tol1=0.88
.step tol1=0.89
.step tol1=0.9
.step tol1=0.91
.step tol1=0.92
.step tol1=0.93
.step tol1=0.94
.step tol1=0.95
.step tol1=0.96
.step tol1=0.97
.step tol1=0.98
.step tol1=0.99
.step tol1=1


Measurement: imax
  step	MAX(-i(v1))	FROM	TO
     1	9.80646	0	0.0001
     2	9.80646	0	0.0001
     3	9.80646	0	0.0001
     4	9.80646	0	0.0001
     5	9.80646	0	0.0001
     6	9.80646	0	0.0001
     7	9.80646	0	0.0001
     8	9.80646	0	0.0001
     9	9.80646	0	0.0001
    10	9.80646	0	0.0001
    11	9.80646	0	0.0001
    12	9.80646	0	0.0001
    13	9.80646	0	0.0001
    14	9.80646	0	0.0001
    15	9.80646	0	0.0001
    16	9.80646	0	0.0001
    17	9.80646	0	0.0001
    18	9.80646	0	0.0001
    19	9.80646	0	0.0001
    20	9.80646	0	0.0001
    21	9.80646	0	0.0001
    22	9.80646	0	0.0001
    23	9.80646	0	0.0001
    24	9.80646	0	0.0001
    25	9.80646	0	0.0001
    26	9.80646	0	0.0001
    27	9.80646	0	0.0001
    28	9.80646	0	0.0001
    29	9.80646	0	0.0001
    30	9.80646	0	0.0001
    31	9.80646	0	0.0001
    32	9.80646	0	0.0001
    33	9.80646	0	0.0001
    34	9.80646	0	0.0001
    35	9.80646	0	0.0001
    36	9.80646	0	0.0001
    37	9.80646	0	0.0001
    38	9.80646	0	0.0001
    39	9.80646	0	0.0001
    40	9.80646	0	0.0001
    41	9.80646	0	0.0001
    42	9.80646	0	0.0001
    43	9.80646	0	0.0001
    44	9.80646	0	0.0001
    45	9.80646	0	0.0001
    46	9.80646	0	0.0001
    47	9.80646	0	0.0001
    48	9.80646	0	0.0001
    49	9.80646	0	0.0001
    50	9.80646	0	0.0001
    51	9.80646	0	0.0001
    52	9.80643	0	0.0001
    53	9.80643	0	0.0001
    54	9.80646	0	0.0001
    55	9.80646	0	0.0001
    56	9.80643	0	0.0001
    57	9.80643	0	0.0001
    58	9.80646	0	0.0001
    59	9.80646	0	0.0001
    60	9.80646	0	0.0001
    61	9.80646	0	0.0001
    62	9.80646	0	0.0001
    63	9.80646	0	0.0001
    64	9.80646	0	0.0001
    65	9.80646	0	0.0001
    66	9.80646	0	0.0001
    67	9.80646	0	0.0001
    68	9.80646	0	0.0001
    69	9.80646	0	0.0001
    70	9.80646	0	0.0001
    71	9.80646	0	0.0001
    72	9.80646	0	0.0001
    73	9.80646	0	0.0001
    74	9.80646	0	0.0001
    75	9.80646	0	0.0001
    76	9.80646	0	0.0001
    77	9.80645	0	0.0001
    78	9.80645	0	0.0001
    79	9.80645	0	0.0001
    80	9.80645	0	0.0001
    81	9.80645	0	0.0001
    82	9.80645	0	0.0001
    83	9.80645	0	0.0001
    84	9.80645	0	0.0001
    85	9.80645	0	0.0001
    86	9.80645	0	0.0001
    87	9.80645	0	0.0001
    88	9.80645	0	0.0001
    89	9.80645	0	0.0001
    90	9.80645	0	0.0001
    91	9.80645	0	0.0001
    92	9.80645	0	0.0001
    93	9.80645	0	0.0001
    94	9.80645	0	0.0001
    95	9.80645	0	0.0001
    96	9.80645	0	0.0001
    97	9.80645	0	0.0001
    98	9.80645	0	0.0001
    99	9.80645	0	0.0001
   100	9.80645	0	0.0001
   101	9.80645	0	0.0001

Measurement: tr1
  step	tr1	FROM	TO
     1	1.8838e-007	2.01446e-005	2.0333e-005
     2	1.88376e-007	2.01446e-005	2.0333e-005
     3	1.88372e-007	2.01446e-005	2.0333e-005
     4	1.88367e-007	2.01446e-005	2.03329e-005
     5	1.88363e-007	2.01446e-005	2.03329e-005
     6	1.88359e-007	2.01446e-005	2.03329e-005
     7	1.88355e-007	2.01446e-005	2.03329e-005
     8	1.88351e-007	2.01446e-005	2.03329e-005
     9	1.88347e-007	2.01446e-005	2.03329e-005
    10	1.88342e-007	2.01446e-005	2.03329e-005
    11	1.88338e-007	2.01446e-005	2.03329e-005
    12	1.88334e-007	2.01446e-005	2.03329e-005
    13	1.8833e-007	2.01446e-005	2.03329e-005
    14	1.88325e-007	2.01446e-005	2.03329e-005
    15	1.88321e-007	2.01446e-005	2.03329e-005
    16	1.88317e-007	2.01446e-005	2.03329e-005
    17	1.88313e-007	2.01446e-005	2.03329e-005
    18	1.88308e-007	2.01446e-005	2.03329e-005
    19	1.88304e-007	2.01446e-005	2.03329e-005
    20	1.883e-007	2.01446e-005	2.03329e-005
    21	1.88295e-007	2.01446e-005	2.03329e-005
    22	1.88291e-007	2.01446e-005	2.03328e-005
    23	1.88287e-007	2.01446e-005	2.03328e-005
    24	1.88282e-007	2.01446e-005	2.03328e-005
    25	1.88278e-007	2.01446e-005	2.03328e-005
    26	1.88273e-007	2.01446e-005	2.03328e-005
    27	1.88269e-007	2.01445e-005	2.03328e-005
    28	1.88265e-007	2.01445e-005	2.03328e-005
    29	1.8826e-007	2.01445e-005	2.03328e-005
    30	1.88256e-007	2.01445e-005	2.03328e-005
    31	1.88251e-007	2.01445e-005	2.03328e-005
    32	1.88247e-007	2.01445e-005	2.03328e-005
    33	1.88242e-007	2.01445e-005	2.03328e-005
    34	1.88238e-007	2.01445e-005	2.03328e-005
    35	1.88233e-007	2.01445e-005	2.03328e-005
    36	1.88229e-007	2.01445e-005	2.03328e-005
    37	1.88224e-007	2.01445e-005	2.03328e-005
    38	1.8822e-007	2.01445e-005	2.03328e-005
    39	1.88215e-007	2.01445e-005	2.03327e-005
    40	1.88211e-007	2.01445e-005	2.03327e-005
    41	1.88206e-007	2.01445e-005	2.03327e-005
    42	1.88202e-007	2.01445e-005	2.03327e-005
    43	1.88197e-007	2.01445e-005	2.03327e-005
    44	1.88192e-007	2.01445e-005	2.03327e-005
    45	1.88188e-007	2.01445e-005	2.03327e-005
    46	1.88183e-007	2.01445e-005	2.03327e-005
    47	1.88178e-007	2.01445e-005	2.03327e-005
    48	1.88174e-007	2.01445e-005	2.03327e-005
    49	1.88169e-007	2.01445e-005	2.03327e-005
    50	1.88164e-007	2.01445e-005	2.03327e-005
    51	1.8816e-007	2.01445e-005	2.03327e-005
    52	1.88154e-007	2.01445e-005	2.03327e-005
    53	1.88149e-007	2.01445e-005	2.03327e-005
    54	1.88146e-007	2.01445e-005	2.03327e-005
    55	1.88141e-007	2.01445e-005	2.03326e-005
    56	1.88135e-007	2.01445e-005	2.03326e-005
    57	1.8813e-007	2.01445e-005	2.03326e-005
    58	1.88127e-007	2.01445e-005	2.03326e-005
    59	1.88122e-007	2.01445e-005	2.03326e-005
    60	1.88117e-007	2.01445e-005	2.03326e-005
    61	1.88112e-007	2.01445e-005	2.03326e-005
    62	1.88108e-007	2.01445e-005	2.03326e-005
    63	1.88103e-007	2.01445e-005	2.03326e-005
    64	1.88098e-007	2.01445e-005	2.03326e-005
    65	1.88093e-007	2.01445e-005	2.03326e-005
    66	1.88088e-007	2.01445e-005	2.03326e-005
    67	1.88083e-007	2.01445e-005	2.03326e-005
    68	1.88079e-007	2.01445e-005	2.03326e-005
    69	1.88074e-007	2.01445e-005	2.03326e-005
    70	1.88069e-007	2.01445e-005	2.03325e-005
    71	1.88064e-007	2.01445e-005	2.03325e-005
    72	1.88059e-007	2.01445e-005	2.03325e-005
    73	1.88054e-007	2.01445e-005	2.03325e-005
    74	1.88049e-007	2.01445e-005	2.03325e-005
    75	1.88044e-007	2.01445e-005	2.03325e-005
    76	1.88039e-007	2.01445e-005	2.03325e-005
    77	1.88034e-007	2.01445e-005	2.03325e-005
    78	1.88029e-007	2.01445e-005	2.03325e-005
    79	1.88024e-007	2.01445e-005	2.03325e-005
    80	1.88019e-007	2.01445e-005	2.03325e-005
    81	1.88014e-007	2.01445e-005	2.03325e-005
    82	1.88009e-007	2.01445e-005	2.03325e-005
    83	1.88005e-007	2.01445e-005	2.03325e-005
    84	1.88e-007	2.01445e-005	2.03325e-005
    85	1.87994e-007	2.01445e-005	2.03324e-005
    86	1.87989e-007	2.01445e-005	2.03324e-005
    87	1.87984e-007	2.01445e-005	2.03324e-005
    88	1.87979e-007	2.01444e-005	2.03324e-005
    89	1.87974e-007	2.01444e-005	2.03324e-005
    90	1.87969e-007	2.01444e-005	2.03324e-005
    91	1.87964e-007	2.01444e-005	2.03324e-005
    92	1.87959e-007	2.01444e-005	2.03324e-005
    93	1.87954e-007	2.01444e-005	2.03324e-005
    94	1.8795e-007	2.01444e-005	2.03324e-005
    95	1.87945e-007	2.01444e-005	2.03324e-005
    96	1.8794e-007	2.01444e-005	2.03324e-005
    97	1.87935e-007	2.01444e-005	2.03324e-005
    98	1.87931e-007	2.01444e-005	2.03324e-005
    99	1.87926e-007	2.01444e-005	2.03324e-005
   100	1.87921e-007	2.01444e-005	2.03323e-005
   101	1.87917e-007	2.01444e-005	2.03323e-005

Measurement: tr2
  step	tr2	FROM	TO
     1	4.24943e-007	6.12087e-005	6.16336e-005
     2	4.24946e-007	6.12087e-005	6.16336e-005
     3	4.24949e-007	6.12087e-005	6.16336e-005
     4	4.24951e-007	6.12087e-005	6.16336e-005
     5	4.24954e-007	6.12087e-005	6.16336e-005
     6	4.24956e-007	6.12087e-005	6.16336e-005
     7	4.24959e-007	6.12087e-005	6.16336e-005
     8	4.24962e-007	6.12087e-005	6.16336e-005
     9	4.24964e-007	6.12087e-005	6.16336e-005
    10	4.24967e-007	6.12087e-005	6.16336e-005
    11	4.2497e-007	6.12087e-005	6.16336e-005
    12	4.24972e-007	6.12087e-005	6.16336e-005
    13	4.24975e-007	6.12087e-005	6.16336e-005
    14	4.24978e-007	6.12087e-005	6.16336e-005
    15	4.2498e-007	6.12087e-005	6.16336e-005
    16	4.24983e-007	6.12087e-005	6.16336e-005
    17	4.24986e-007	6.12087e-005	6.16336e-005
    18	4.24989e-007	6.12087e-005	6.16336e-005
    19	4.24991e-007	6.12087e-005	6.16336e-005
    20	4.24994e-007	6.12087e-005	6.16336e-005
    21	4.24997e-007	6.12087e-005	6.16336e-005
    22	4.25e-007	6.12087e-005	6.16337e-005
    23	4.25003e-007	6.12087e-005	6.16337e-005
    24	4.25006e-007	6.12087e-005	6.16337e-005
    25	4.25008e-007	6.12087e-005	6.16337e-005
    26	4.25011e-007	6.12087e-005	6.16337e-005
    27	4.25014e-007	6.12087e-005	6.16337e-005
    28	4.25017e-007	6.12087e-005	6.16337e-005
    29	4.2502e-007	6.12087e-005	6.16337e-005
    30	4.25023e-007	6.12087e-005	6.16337e-005
    31	4.25026e-007	6.12087e-005	6.16337e-005
    32	4.25029e-007	6.12087e-005	6.16337e-005
    33	4.25032e-007	6.12087e-005	6.16337e-005
    34	4.25035e-007	6.12087e-005	6.16337e-005
    35	4.25038e-007	6.12087e-005	6.16337e-005
    36	4.25041e-007	6.12087e-005	6.16337e-005
    37	4.25044e-007	6.12087e-005	6.16337e-005
    38	4.25047e-007	6.12087e-005	6.16337e-005
    39	4.2505e-007	6.12087e-005	6.16337e-005
    40	4.25053e-007	6.12087e-005	6.16337e-005
    41	4.25056e-007	6.12087e-005	6.16337e-005
    42	4.25059e-007	6.12087e-005	6.16337e-005
    43	4.25062e-007	6.12087e-005	6.16337e-005
    44	4.25065e-007	6.12087e-005	6.16337e-005
    45	4.25068e-007	6.12087e-005	6.16337e-005
    46	4.25072e-007	6.12087e-005	6.16337e-005
    47	4.25075e-007	6.12087e-005	6.16337e-005
    48	4.25078e-007	6.12087e-005	6.16337e-005
    49	4.25081e-007	6.12087e-005	6.16337e-005
    50	4.25084e-007	6.12087e-005	6.16337e-005
    51	4.25088e-007	6.12087e-005	6.16337e-005
    52	4.20725e-007	6.12089e-005	6.16296e-005
    53	4.14524e-007	6.12091e-005	6.16236e-005
    54	4.19096e-007	6.12094e-005	6.16285e-005
    55	4.25357e-007	6.12096e-005	6.16349e-005
    56	4.11504e-007	6.12093e-005	6.16208e-005
    57	4.20023e-007	6.12091e-005	6.16291e-005
    58	4.2511e-007	6.12087e-005	6.16338e-005
    59	4.25114e-007	6.12087e-005	6.16338e-005
    60	4.25117e-007	6.12087e-005	6.16338e-005
    61	4.2512e-007	6.12087e-005	6.16338e-005
    62	4.25124e-007	6.12087e-005	6.16338e-005
    63	4.25127e-007	6.12087e-005	6.16338e-005
    64	4.2513e-007	6.12087e-005	6.16338e-005
    65	4.25134e-007	6.12087e-005	6.16338e-005
    66	4.25137e-007	6.12087e-005	6.16338e-005
    67	4.25141e-007	6.12087e-005	6.16338e-005
    68	4.25144e-007	6.12087e-005	6.16338e-005
    69	4.25147e-007	6.12087e-005	6.16338e-005
    70	4.25151e-007	6.12087e-005	6.16338e-005
    71	4.25154e-007	6.12087e-005	6.16338e-005
    72	4.25158e-007	6.12087e-005	6.16338e-005
    73	4.25161e-007	6.12087e-005	6.16338e-005
    74	4.25165e-007	6.12087e-005	6.16338e-005
    75	4.25168e-007	6.12087e-005	6.16338e-005
    76	4.25172e-007	6.12087e-005	6.16338e-005
    77	4.25175e-007	6.12087e-005	6.16338e-005
    78	4.25179e-007	6.12087e-005	6.16338e-005
    79	4.25182e-007	6.12087e-005	6.16338e-005
    80	4.25186e-007	6.12087e-005	6.16338e-005
    81	4.2519e-007	6.12087e-005	6.16338e-005
    82	4.25193e-007	6.12087e-005	6.16338e-005
    83	4.25197e-007	6.12087e-005	6.16338e-005
    84	4.25201e-007	6.12087e-005	6.16339e-005
    85	4.25204e-007	6.12087e-005	6.16339e-005
    86	4.25208e-007	6.12087e-005	6.16339e-005
    87	4.25211e-007	6.12087e-005	6.16339e-005
    88	4.25215e-007	6.12087e-005	6.16339e-005
    89	4.25219e-007	6.12087e-005	6.16339e-005
    90	4.25223e-007	6.12087e-005	6.16339e-005
    91	4.25226e-007	6.12087e-005	6.16339e-005
    92	4.2523e-007	6.12087e-005	6.16339e-005
    93	4.25234e-007	6.12087e-005	6.16339e-005
    94	4.25238e-007	6.12087e-005	6.16339e-005
    95	4.25241e-007	6.12087e-005	6.16339e-005
    96	4.25245e-007	6.12087e-005	6.16339e-005
    97	4.25249e-007	6.12087e-005	6.16339e-005
    98	4.25253e-007	6.12087e-005	6.16339e-005
    99	4.25257e-007	6.12087e-005	6.16339e-005
   100	4.17219e-007	6.12087e-005	6.16259e-005
   101	4.18141e-007	6.12087e-005	6.16268e-005

Measurement: vth
  step	v(n004)	at
     1	1.88283	2.01041e-005
     2	1.88262	2.01041e-005
     3	1.88242	2.01041e-005
     4	1.88222	2.01041e-005
     5	1.88202	2.01041e-005
     6	1.88182	2.01041e-005
     7	1.88163	2.01041e-005
     8	1.88143	2.01041e-005
     9	1.88123	2.01041e-005
    10	1.88104	2.01041e-005
    11	1.88084	2.01041e-005
    12	1.88064	2.0104e-005
    13	1.88045	2.0104e-005
    14	1.88025	2.0104e-005
    15	1.88006	2.0104e-005
    16	1.87987	2.0104e-005
    17	1.87967	2.0104e-005
    18	1.87948	2.0104e-005
    19	1.87929	2.0104e-005
    20	1.8791	2.0104e-005
    21	1.87891	2.0104e-005
    22	1.87871	2.0104e-005
    23	1.87852	2.0104e-005
    24	1.87833	2.0104e-005
    25	1.87814	2.0104e-005
    26	1.87795	2.0104e-005
    27	1.87776	2.01039e-005
    28	1.87758	2.01039e-005
    29	1.87739	2.01039e-005
    30	1.8772	2.01039e-005
    31	1.87701	2.01039e-005
    32	1.87682	2.01039e-005
    33	1.87663	2.01039e-005
    34	1.87645	2.01039e-005
    35	1.87626	2.01039e-005
    36	1.87607	2.01039e-005
    37	1.87589	2.01039e-005
    38	1.8757	2.01039e-005
    39	1.87551	2.01039e-005
    40	1.87533	2.01039e-005
    41	1.87514	2.01039e-005
    42	1.87495	2.01039e-005
    43	1.87477	2.01038e-005
    44	1.87458	2.01038e-005
    45	1.8744	2.01038e-005
    46	1.87421	2.01038e-005
    47	1.87403	2.01038e-005
    48	1.87384	2.01038e-005
    49	1.87366	2.01038e-005
    50	1.87347	2.01038e-005
    51	1.87328	2.01038e-005
    52	1.8731	2.01038e-005
    53	1.87291	2.01038e-005
    54	1.87273	2.01038e-005
    55	1.87254	2.01038e-005
    56	1.87236	2.01038e-005
    57	1.87217	2.01038e-005
    58	1.87199	2.01038e-005
    59	1.8718	2.01037e-005
    60	1.87162	2.01037e-005
    61	1.87143	2.01037e-005
    62	1.87125	2.01037e-005
    63	1.87106	2.01037e-005
    64	1.87088	2.01037e-005
    65	1.87069	2.01037e-005
    66	1.8705	2.01037e-005
    67	1.87032	2.01037e-005
    68	1.87013	2.01037e-005
    69	1.86995	2.01037e-005
    70	1.86976	2.01037e-005
    71	1.86958	2.01037e-005
    72	1.86939	2.01037e-005
    73	1.8692	2.01037e-005
    74	1.86902	2.01037e-005
    75	1.86883	2.01036e-005
    76	1.86864	2.01036e-005
    77	1.86846	2.01036e-005
    78	1.86827	2.01036e-005
    79	1.86808	2.01036e-005
    80	1.86789	2.01036e-005
    81	1.86771	2.01036e-005
    82	1.86752	2.01036e-005
    83	1.86733	2.01036e-005
    84	1.86714	2.01036e-005
    85	1.86695	2.01036e-005
    86	1.86677	2.01036e-005
    87	1.86658	2.01036e-005
    88	1.86639	2.01036e-005
    89	1.8662	2.01036e-005
    90	1.86601	2.01036e-005
    91	1.86582	2.01035e-005
    92	1.86563	2.01035e-005
    93	1.86544	2.01035e-005
    94	1.86525	2.01035e-005
    95	1.86506	2.01035e-005
    96	1.86487	2.01035e-005
    97	1.86468	2.01035e-005
    98	1.86449	2.01035e-005
    99	1.86429	2.01035e-005
   100	1.8641	2.01035e-005
   101	1.86391	2.01035e-005


Date: Wed Mar 23 09:34:43 2022
Total elapsed time: 1.246 seconds.

tnom = 27
temp = 27
method = modified trap
totiter = 2564
traniter = 2534
tranpoints = 1106
accept = 1088
rejected = 18
matrix size = 11
fillins = 0
solver = Normal
Matrix Compiler1: 674 bytes object code size  0.1/0.1/[0.0]
Matrix Compiler2: off  [0.1]/0.1/0.1

