Circuit: * C:\Users\user\Documents\LTspiceXVII\file\Montecarlo\monte_SiC.asc

Direct Newton iteration for .op point succeeded.
.step tol1=0
.step tol1=0.01
.step tol1=0.02
.step tol1=0.03
.step tol1=0.04
.step tol1=0.05
.step tol1=0.06
.step tol1=0.07
.step tol1=0.08
.step tol1=0.09
.step tol1=0.1
.step tol1=0.11
.step tol1=0.12
.step tol1=0.13
.step tol1=0.14
.step tol1=0.15
.step tol1=0.16
.step tol1=0.17
.step tol1=0.18
.step tol1=0.19
.step tol1=0.2
.step tol1=0.21
.step tol1=0.22
.step tol1=0.23
.step tol1=0.24
.step tol1=0.25
.step tol1=0.26
.step tol1=0.27
.step tol1=0.28
.step tol1=0.29
.step tol1=0.3
.step tol1=0.31
.step tol1=0.32
.step tol1=0.33
.step tol1=0.34
.step tol1=0.35
.step tol1=0.36
.step tol1=0.37
.step tol1=0.38
.step tol1=0.39
.step tol1=0.4
.step tol1=0.41
.step tol1=0.42
.step tol1=0.43
.step tol1=0.44
.step tol1=0.45
.step tol1=0.46
.step tol1=0.47
.step tol1=0.48
.step tol1=0.49
.step tol1=0.5
.step tol1=0.51
.step tol1=0.52
.step tol1=0.53
.step tol1=0.54
.step tol1=0.55
.step tol1=0.56
.step tol1=0.57
.step tol1=0.58
.step tol1=0.59
.step tol1=0.6
.step tol1=0.61
.step tol1=0.62
.step tol1=0.63
.step tol1=0.64
.step tol1=0.65
.step tol1=0.66
.step tol1=0.67
.step tol1=0.68
.step tol1=0.69
.step tol1=0.7
.step tol1=0.71
.step tol1=0.72
.step tol1=0.73
.step tol1=0.74
.step tol1=0.75
.step tol1=0.76
.step tol1=0.77
.step tol1=0.78
.step tol1=0.79
.step tol1=0.8
.step tol1=0.81
.step tol1=0.82
.step tol1=0.83
.step tol1=0.84
.step tol1=0.85
.step tol1=0.86
.step tol1=0.87
.step tol1=0.88
.step tol1=0.89
.step tol1=0.9
.step tol1=0.91
.step tol1=0.92
.step tol1=0.93
.step tol1=0.94
.step tol1=0.95
.step tol1=0.96
.step tol1=0.97
.step tol1=0.98
.step tol1=0.99
.step tol1=1


Measurement: imax
  step	MAX(-i(v1))	FROM	TO
     1	9.80646	0	0.0001
     2	9.80645	0	0.0001
     3	9.80645	0	0.0001
     4	9.80643	0	0.0001
     5	9.80643	0	0.0001
     6	9.80643	0	0.0001
     7	9.80643	0	0.0001
     8	9.80645	0	0.0001
     9	9.80643	0	0.0001
    10	9.80643	0	0.0001
    11	9.80643	0	0.0001
    12	9.80643	0	0.0001
    13	9.80643	0	0.0001
    14	9.80643	0	0.0001
    15	9.80643	0	0.0001
    16	9.80643	0	0.0001
    17	9.80643	0	0.0001
    18	9.80644	0	0.0001
    19	9.80645	0	0.0001
    20	9.80646	0	0.0001
    21	9.80647	0	0.0001
    22	9.80647	0	0.0001
    23	9.80643	0	0.0001
    24	9.80646	0	0.0001
    25	9.80643	0	0.0001
    26	9.80643	0	0.0001
    27	9.80647	0	0.0001
    28	9.80643	0	0.0001
    29	9.80643	0	0.0001
    30	9.80643	0	0.0001
    31	9.80646	0	0.0001
    32	9.80643	0	0.0001
    33	9.80647	0	0.0001
    34	9.80643	0	0.0001
    35	9.80643	0	0.0001
    36	9.80643	0	0.0001
    37	9.80646	0	0.0001
    38	9.80643	0	0.0001
    39	9.80647	0	0.0001
    40	9.80647	0	0.0001
    41	9.80647	0	0.0001
    42	9.80648	0	0.0001
    43	9.80643	0	0.0001
    44	9.80649	0	0.0001
    45	9.80643	0	0.0001
    46	9.80644	0	0.0001
    47	9.80643	0	0.0001
    48	9.80643	0	0.0001
    49	9.80643	0	0.0001
    50	9.80643	0	0.0001
    51	9.80643	0	0.0001
    52	9.80643	0	0.0001
    53	9.80643	0	0.0001
    54	9.80646	0	0.0001
    55	9.80643	0	0.0001
    56	9.80643	0	0.0001
    57	9.80643	0	0.0001
    58	9.80644	0	0.0001
    59	9.80644	0	0.0001
    60	9.80644	0	0.0001
    61	9.80643	0	0.0001
    62	9.80645	0	0.0001
    63	9.80643	0	0.0001
    64	9.80645	0	0.0001
    65	9.80644	0	0.0001
    66	9.80643	0	0.0001
    67	9.80645	0	0.0001
    68	9.80645	0	0.0001
    69	9.80645	0	0.0001
    70	9.80645	0	0.0001
    71	9.80643	0	0.0001
    72	9.80644	0	0.0001
    73	9.80643	0	0.0001
    74	9.80643	0	0.0001
    75	9.80645	0	0.0001
    76	9.80643	0	0.0001
    77	9.80645	0	0.0001
    78	9.80645	0	0.0001
    79	9.80645	0	0.0001
    80	9.80645	0	0.0001
    81	9.80645	0	0.0001
    82	9.80643	0	0.0001
    83	9.80645	0	0.0001
    84	9.80643	0	0.0001
    85	9.80643	0	0.0001
    86	9.80645	0	0.0001
    87	9.80645	0	0.0001
    88	9.80643	0	0.0001
    89	9.80643	0	0.0001
    90	9.80643	0	0.0001
    91	9.80643	0	0.0001
    92	9.80643	0	0.0001
    93	9.80643	0	0.0001
    94	9.80643	0	0.0001
    95	9.80643	0	0.0001
    96	9.80643	0	0.0001
    97	9.80643	0	0.0001
    98	9.80643	0	0.0001
    99	9.80643	0	0.0001
   100	9.80643	0	0.0001
   101	9.80643	0	0.0001

Measurement: tr1
  step	tr1	FROM	TO
     1	1.8838e-007	2.01446e-005	2.0333e-005
     2	1.88699e-007	2.01452e-005	2.03339e-005
     3	1.89035e-007	2.01458e-005	2.03349e-005
     4	1.89238e-007	2.01464e-005	2.03357e-005
     5	1.89441e-007	2.0147e-005	2.03365e-005
     6	1.896e-007	2.01477e-005	2.03373e-005
     7	1.89724e-007	2.01483e-005	2.0338e-005
     8	1.89884e-007	2.01488e-005	2.03387e-005
     9	1.90547e-007	2.01494e-005	2.034e-005
    10	1.9127e-007	2.015e-005	2.03413e-005
    11	1.9261e-007	2.01506e-005	2.03432e-005
    12	1.93105e-007	2.01512e-005	2.03443e-005
    13	1.936e-007	2.01517e-005	2.03453e-005
    14	1.94109e-007	2.01522e-005	2.03464e-005
    15	1.94665e-007	2.01528e-005	2.03474e-005
    16	1.95192e-007	2.01533e-005	2.03485e-005
    17	1.95711e-007	2.01538e-005	2.03495e-005
    18	1.96328e-007	2.01543e-005	2.03507e-005
    19	1.96545e-007	2.01549e-005	2.03514e-005
    20	1.96854e-007	2.01554e-005	2.03522e-005
    21	1.97511e-007	2.01559e-005	2.03534e-005
    22	1.98158e-007	2.01564e-005	2.03546e-005
    23	1.98789e-007	2.0157e-005	2.03558e-005
    24	1.98651e-007	2.01575e-005	2.03561e-005
    25	1.98987e-007	2.0158e-005	2.0357e-005
    26	1.99496e-007	2.01586e-005	2.03581e-005
    27	1.99991e-007	2.01591e-005	2.03591e-005
    28	2.00418e-007	2.01599e-005	2.03603e-005
    29	2.00868e-007	2.01604e-005	2.03613e-005
    30	2.01367e-007	2.01609e-005	2.03623e-005
    31	2.00478e-007	2.01614e-005	2.03619e-005
    32	2.01078e-007	2.01626e-005	2.03637e-005
    33	2.0114e-007	2.01635e-005	2.03646e-005
    34	2.00933e-007	2.01644e-005	2.03653e-005
    35	2.01318e-007	2.01653e-005	2.03666e-005
    36	2.01543e-007	2.01663e-005	2.03678e-005
    37	2.01637e-007	2.01672e-005	2.03689e-005
    38	2.01675e-007	2.01682e-005	2.03699e-005
    39	2.01731e-007	2.01692e-005	2.03709e-005
    40	2.01806e-007	2.01702e-005	2.0372e-005
    41	2.0162e-007	2.01712e-005	2.03728e-005
    42	2.01405e-007	2.01721e-005	2.03735e-005
    43	2.01477e-007	2.01727e-005	2.03742e-005
    44	2.01585e-007	2.01733e-005	2.03749e-005
    45	2.01892e-007	2.01739e-005	2.03758e-005
    46	2.023e-007	2.01745e-005	2.03768e-005
    47	2.02357e-007	2.0175e-005	2.03774e-005
    48	2.02581e-007	2.01756e-005	2.03782e-005
    49	2.02866e-007	2.01762e-005	2.0379e-005
    50	2.0325e-007	2.01767e-005	2.038e-005
    51	2.01782e-007	2.01773e-005	2.03791e-005
    52	2.02197e-007	2.01778e-005	2.038e-005
    53	2.0129e-007	2.01784e-005	2.03797e-005
    54	2.01622e-007	2.0179e-005	2.03806e-005
    55	2.01991e-007	2.01795e-005	2.03815e-005
    56	2.02516e-007	2.018e-005	2.03826e-005
    57	2.03125e-007	2.01806e-005	2.03837e-005
    58	2.03738e-007	2.01811e-005	2.03849e-005
    59	2.04349e-007	2.01817e-005	2.0386e-005
    60	2.04945e-007	2.01822e-005	2.03871e-005
    61	2.05529e-007	2.01827e-005	2.03882e-005
    62	2.0611e-007	2.01832e-005	2.03893e-005
    63	2.06696e-007	2.01837e-005	2.03904e-005
    64	2.07261e-007	2.01842e-005	2.03915e-005
    65	2.07821e-007	2.01847e-005	2.03926e-005
    66	2.09755e-007	2.01852e-005	2.0395e-005
    67	2.10319e-007	2.01857e-005	2.0396e-005
    68	2.109e-007	2.01862e-005	2.03971e-005
    69	2.0916e-007	2.01874e-005	2.03965e-005
    70	2.09495e-007	2.01882e-005	2.03977e-005
    71	2.10424e-007	2.01889e-005	2.03994e-005
    72	2.10708e-007	2.01897e-005	2.04004e-005
    73	2.10922e-007	2.01905e-005	2.04014e-005
    74	2.11165e-007	2.01913e-005	2.04024e-005
    75	2.11399e-007	2.0192e-005	2.04034e-005
    76	2.11544e-007	2.01928e-005	2.04043e-005
    77	2.11782e-007	2.01935e-005	2.04053e-005
    78	2.12016e-007	2.01943e-005	2.04063e-005
    79	2.12254e-007	2.01951e-005	2.04073e-005
    80	2.12497e-007	2.01959e-005	2.04084e-005
    81	2.12754e-007	2.01967e-005	2.04094e-005
    82	2.13025e-007	2.01974e-005	2.04104e-005
    83	2.13313e-007	2.01982e-005	2.04115e-005
    84	2.13615e-007	2.0199e-005	2.04126e-005
    85	2.13933e-007	2.01997e-005	2.04137e-005
    86	2.14029e-007	2.02005e-005	2.04145e-005
    87	2.13935e-007	2.02013e-005	2.04152e-005
    88	2.14157e-007	2.0202e-005	2.04162e-005
    89	2.1438e-007	2.02028e-005	2.04172e-005
    90	2.14602e-007	2.02035e-005	2.04181e-005
    91	2.14825e-007	2.02043e-005	2.04191e-005
    92	2.15047e-007	2.0205e-005	2.042e-005
    93	2.1527e-007	2.02057e-005	2.0421e-005
    94	2.15493e-007	2.02064e-005	2.04219e-005
    95	2.15717e-007	2.02071e-005	2.04228e-005
    96	2.15945e-007	2.02078e-005	2.04237e-005
    97	2.16177e-007	2.02085e-005	2.04246e-005
    98	2.16416e-007	2.02091e-005	2.04255e-005
    99	2.16662e-007	2.02098e-005	2.04264e-005
   100	2.16918e-007	2.02104e-005	2.04273e-005
   101	2.17184e-007	2.0211e-005	2.04282e-005

Measurement: tr2
  step	tr2	FROM	TO
     1	4.24943e-007	6.12087e-005	6.16336e-005
     2	4.19383e-007	6.1211e-005	6.16304e-005
     3	4.17253e-007	6.1214e-005	6.16313e-005
     4	4.18398e-007	6.12157e-005	6.16341e-005
     5	4.21727e-007	6.12182e-005	6.16399e-005
     6	4.26747e-007	6.12207e-005	6.16475e-005
     7	4.27118e-007	6.12231e-005	6.16502e-005
     8	4.27108e-007	6.12257e-005	6.16528e-005
     9	4.21129e-007	6.12276e-005	6.16488e-005
    10	4.289e-007	6.12301e-005	6.1659e-005
    11	4.24414e-007	6.12325e-005	6.16569e-005
    12	4.29126e-007	6.12349e-005	6.1664e-005
    13	4.29462e-007	6.12372e-005	6.16667e-005
    14	4.30681e-007	6.12395e-005	6.16701e-005
    15	4.23744e-007	6.12417e-005	6.16654e-005
    16	4.26068e-007	6.12441e-005	6.16702e-005
    17	4.32753e-007	6.12465e-005	6.16793e-005
    18	4.27737e-007	6.12489e-005	6.16766e-005
    19	4.2616e-007	6.12512e-005	6.16774e-005
    20	4.30535e-007	6.12538e-005	6.16843e-005
    21	4.26619e-007	6.12562e-005	6.16828e-005
    22	4.3539e-007	6.1259e-005	6.16943e-005
    23	4.36137e-007	6.12609e-005	6.1697e-005
    24	4.36748e-007	6.12632e-005	6.17e-005
    25	4.33378e-007	6.12658e-005	6.16992e-005
    26	4.36654e-007	6.12679e-005	6.17045e-005
    27	4.33748e-007	6.12707e-005	6.17044e-005
    28	4.38687e-007	6.12725e-005	6.17111e-005
    29	4.38814e-007	6.12751e-005	6.17139e-005
    30	4.39149e-007	6.12774e-005	6.17166e-005
    31	4.39771e-007	6.12798e-005	6.17196e-005
    32	4.40628e-007	6.12822e-005	6.17228e-005
    33	4.40756e-007	6.12848e-005	6.17255e-005
    34	4.41195e-007	6.1287e-005	6.17282e-005
    35	4.4123e-007	6.12895e-005	6.17307e-005
    36	4.38141e-007	6.12916e-005	6.17297e-005
    37	4.41494e-007	6.12938e-005	6.17353e-005
    38	4.32085e-007	6.12962e-005	6.17283e-005
    39	4.43176e-007	6.12983e-005	6.17414e-005
    40	4.43476e-007	6.13006e-005	6.17441e-005
    41	4.43776e-007	6.13029e-005	6.17467e-005
    42	4.40091e-007	6.13057e-005	6.17458e-005
    43	4.40879e-007	6.13082e-005	6.17491e-005
    44	4.45634e-007	6.13108e-005	6.17565e-005
    45	4.45593e-007	6.13128e-005	6.17584e-005
    46	4.43537e-007	6.13151e-005	6.17587e-005
    47	4.40059e-007	6.1317e-005	6.17571e-005
    48	4.43522e-007	6.13195e-005	6.1763e-005
    49	4.47212e-007	6.13218e-005	6.1769e-005
    50	4.46671e-007	6.13241e-005	6.17708e-005
    51	4.48495e-007	6.1327e-005	6.17755e-005
    52	4.44799e-007	6.13291e-005	6.17739e-005
    53	4.45115e-007	6.13312e-005	6.17764e-005
    54	4.47044e-007	6.13342e-005	6.17812e-005
    55	4.47283e-007	6.1336e-005	6.17832e-005
    56	4.50817e-007	6.13389e-005	6.17897e-005
    57	4.47666e-007	6.1341e-005	6.17887e-005
    58	4.52459e-007	6.13433e-005	6.17957e-005
    59	4.52155e-007	6.13454e-005	6.17976e-005
    60	4.5224e-007	6.13482e-005	6.18005e-005
    61	4.51592e-007	6.13502e-005	6.18018e-005
    62	4.51837e-007	6.13529e-005	6.18047e-005
    63	4.54477e-007	6.13555e-005	6.18099e-005
    64	4.54801e-007	6.13578e-005	6.18126e-005
    65	4.55578e-007	6.13596e-005	6.18152e-005
    66	4.51805e-007	6.13622e-005	6.1814e-005
    67	4.52161e-007	6.13648e-005	6.18169e-005
    68	4.56976e-007	6.13668e-005	6.18237e-005
    69	4.51989e-007	6.13694e-005	6.18214e-005
    70	4.58022e-007	6.1372e-005	6.183e-005
    71	4.57778e-007	6.13743e-005	6.18321e-005
    72	4.58187e-007	6.13767e-005	6.18349e-005
    73	4.5774e-007	6.13789e-005	6.18366e-005
    74	4.59077e-007	6.13815e-005	6.18405e-005
    75	4.5964e-007	6.13834e-005	6.18431e-005
    76	4.56836e-007	6.13857e-005	6.18425e-005
    77	4.60659e-007	6.13881e-005	6.18488e-005
    78	4.61316e-007	6.13905e-005	6.18518e-005
    79	4.61778e-007	6.13928e-005	6.18546e-005
    80	4.61881e-007	6.13948e-005	6.18566e-005
    81	4.62262e-007	6.13971e-005	6.18594e-005
    82	4.62722e-007	6.14003e-005	6.1863e-005
    83	4.62949e-007	6.14023e-005	6.18653e-005
    84	4.64127e-007	6.14043e-005	6.18685e-005
    85	4.64281e-007	6.14071e-005	6.18714e-005
    86	4.65232e-007	6.14091e-005	6.18743e-005
    87	4.64553e-007	6.14115e-005	6.1876e-005
    88	4.66795e-007	6.14141e-005	6.18809e-005
    89	4.64531e-007	6.14167e-005	6.18812e-005
    90	4.65672e-007	6.14183e-005	6.1884e-005
    91	4.63069e-007	6.14208e-005	6.18839e-005
    92	4.64789e-007	6.1423e-005	6.18878e-005
    93	4.64788e-007	6.14254e-005	6.18902e-005
    94	4.64761e-007	6.14277e-005	6.18925e-005
    95	4.64713e-007	6.14301e-005	6.18948e-005
    96	4.66166e-007	6.14325e-005	6.18987e-005
    97	4.70916e-007	6.14347e-005	6.19056e-005
    98	4.71351e-007	6.14371e-005	6.19084e-005
    99	4.66297e-007	6.14396e-005	6.19059e-005
   100	4.73243e-007	6.14417e-005	6.1915e-005
   101	4.71581e-007	6.14443e-005	6.19159e-005

Measurement: vth
  step	v(n004)	at
     1	1.88283	2.01041e-005
     2	1.87515	2.01043e-005
     3	1.86855	2.01045e-005
     4	1.86318	2.01047e-005
     5	1.85922	2.0105e-005
     6	1.85687	2.01054e-005
     7	1.85634	2.01058e-005
     8	1.85789	2.01062e-005
     9	1.86182	2.01068e-005
    10	1.86845	2.01075e-005
    11	1.87812	2.01082e-005
    12	1.89126	2.01091e-005
    13	1.90421	2.011e-005
    14	1.89306	2.01101e-005
    15	1.88202	2.01101e-005
    16	1.8711	2.01101e-005
    17	1.86028	2.01101e-005
    18	1.84958	2.01101e-005
    19	1.83899	2.01102e-005
    20	1.82851	2.01102e-005
    21	1.81814	2.01102e-005
    22	1.80787	2.01102e-005
    23	1.7977	2.01102e-005
    24	1.78762	2.01102e-005
    25	1.77764	2.01102e-005
    26	1.76775	2.01102e-005
    27	1.75795	2.01102e-005
    28	1.74763	2.01102e-005
    29	1.73822	2.01102e-005
    30	1.72894	2.01103e-005
    31	1.7198	2.01103e-005
    32	1.71079	2.01103e-005
    33	1.70192	2.01103e-005
    34	1.6932	2.01103e-005
    35	1.68463	2.01104e-005
    36	1.67622	2.01104e-005
    37	1.668	2.01104e-005
    38	1.65998	2.01104e-005
    39	1.65219	2.01105e-005
    40	1.64468	2.01105e-005
    41	1.63752	2.01106e-005
    42	1.63079	2.01107e-005
    43	1.62466	2.01108e-005
    44	1.61939	2.01109e-005
    45	1.61369	2.0111e-005
    46	1.6081	2.01111e-005
    47	1.60293	2.01113e-005
    48	1.5982	2.01114e-005
    49	1.59396	2.01116e-005
    50	1.59027	2.01118e-005
    51	1.58718	2.0112e-005
    52	1.58475	2.01122e-005
    53	1.58304	2.01125e-005
    54	1.58214	2.01128e-005
    55	1.58212	2.01132e-005
    56	1.58307	2.01136e-005
    57	1.58509	2.0114e-005
    58	1.58829	2.01145e-005
    59	1.59279	2.01151e-005
    60	1.59871	2.01158e-005
    61	1.60619	2.01165e-005
    62	1.61538	2.01173e-005
    63	1.62645	2.01182e-005
    64	1.63956	2.01192e-005
    65	1.65491	2.01203e-005
    66	1.67269	2.01216e-005
    67	1.69311	2.0123e-005
    68	1.70747	2.01241e-005
    69	1.70035	2.01241e-005
    70	1.69329	2.01241e-005
    71	1.68629	2.01241e-005
    72	1.67935	2.01242e-005
    73	1.67247	2.01242e-005
    74	1.66565	2.01242e-005
    75	1.65889	2.01242e-005
    76	1.6522	2.01242e-005
    77	1.64557	2.01243e-005
    78	1.639	2.01243e-005
    79	1.63249	2.01243e-005
    80	1.62605	2.01243e-005
    81	1.61967	2.01244e-005
    82	1.61335	2.01244e-005
    83	1.60709	2.01244e-005
    84	1.60089	2.01244e-005
    85	1.59475	2.01244e-005
    86	1.58867	2.01245e-005
    87	1.58264	2.01245e-005
    88	1.57667	2.01245e-005
    89	1.57075	2.01245e-005
    90	1.56488	2.01246e-005
    91	1.55906	2.01246e-005
    92	1.55328	2.01246e-005
    93	1.54754	2.01246e-005
    94	1.54184	2.01246e-005
    95	1.53617	2.01247e-005
    96	1.53053	2.01247e-005
    97	1.52491	2.01247e-005
    98	1.51931	2.01247e-005
    99	1.51372	2.01247e-005
   100	1.50815	2.01247e-005
   101	1.50259	2.01247e-005


Date: Wed Mar 23 09:34:05 2022
Total elapsed time: 1.420 seconds.

tnom = 27
temp = 27
method = modified trap
totiter = 2348
traniter = 2318
tranpoints = 1105
accept = 1086
rejected = 19
matrix size = 11
fillins = 0
solver = Normal
Matrix Compiler1: 674 bytes object code size  0.1/0.1/[0.1]
Matrix Compiler2: 847 bytes object code size  0.1/0.1/[0.1]

