Circuit: * C:\Users\user\Documents\LTspiceXVII\file\Montecarlo\monte_SiC.asc

Direct Newton iteration for .op point succeeded.
.step tol1=0
.step tol1=0.01
.step tol1=0.02
.step tol1=0.03
.step tol1=0.04
.step tol1=0.05
.step tol1=0.06
.step tol1=0.07
.step tol1=0.08
.step tol1=0.09
.step tol1=0.1
.step tol1=0.11
.step tol1=0.12
.step tol1=0.13
.step tol1=0.14
.step tol1=0.15
.step tol1=0.16
.step tol1=0.17
.step tol1=0.18
.step tol1=0.19
.step tol1=0.2
.step tol1=0.21
.step tol1=0.22
.step tol1=0.23
.step tol1=0.24
.step tol1=0.25
.step tol1=0.26
.step tol1=0.27
.step tol1=0.28
.step tol1=0.29
.step tol1=0.3
.step tol1=0.31
.step tol1=0.32
.step tol1=0.33
.step tol1=0.34
.step tol1=0.35
.step tol1=0.36
.step tol1=0.37
.step tol1=0.38
.step tol1=0.39
.step tol1=0.4
.step tol1=0.41
.step tol1=0.42
.step tol1=0.43
.step tol1=0.44
.step tol1=0.45
.step tol1=0.46
.step tol1=0.47
.step tol1=0.48
.step tol1=0.49
.step tol1=0.5
.step tol1=0.51
.step tol1=0.52
.step tol1=0.53
.step tol1=0.54
.step tol1=0.55
.step tol1=0.56
.step tol1=0.57
.step tol1=0.58
.step tol1=0.59
.step tol1=0.6
.step tol1=0.61
.step tol1=0.62
.step tol1=0.63
.step tol1=0.64
.step tol1=0.65
.step tol1=0.66
.step tol1=0.67
.step tol1=0.68
.step tol1=0.69
.step tol1=0.7
.step tol1=0.71
.step tol1=0.72
.step tol1=0.73
.step tol1=0.74
.step tol1=0.75
.step tol1=0.76
.step tol1=0.77
.step tol1=0.78
.step tol1=0.79
.step tol1=0.8
.step tol1=0.81
.step tol1=0.82
.step tol1=0.83
.step tol1=0.84
.step tol1=0.85
.step tol1=0.86
.step tol1=0.87
.step tol1=0.88
.step tol1=0.89
.step tol1=0.9
.step tol1=0.91
.step tol1=0.92
.step tol1=0.93
.step tol1=0.94
.step tol1=0.95
.step tol1=0.96
.step tol1=0.97
.step tol1=0.98
.step tol1=0.99
.step tol1=1


Measurement: imax
  step	MAX(-i(v1))	FROM	TO
     1	9.80646	0	0.0001
     2	9.80622	0	0.0001
     3	9.80598	0	0.0001
     4	9.80573	0	0.0001
     5	9.80549	0	0.0001
     6	9.80525	0	0.0001
     7	9.805	0	0.0001
     8	9.80476	0	0.0001
     9	9.80452	0	0.0001
    10	9.80427	0	0.0001
    11	9.80403	0	0.0001
    12	9.80379	0	0.0001
    13	9.80354	0	0.0001
    14	9.8033	0	0.0001
    15	9.80306	0	0.0001
    16	9.80281	0	0.0001
    17	9.80257	0	0.0001
    18	9.80233	0	0.0001
    19	9.80208	0	0.0001
    20	9.80184	0	0.0001
    21	9.8016	0	0.0001
    22	9.80135	0	0.0001
    23	9.80111	0	0.0001
    24	9.80087	0	0.0001
    25	9.80062	0	0.0001
    26	9.80038	0	0.0001
    27	9.80014	0	0.0001
    28	9.79989	0	0.0001
    29	9.79965	0	0.0001
    30	9.79941	0	0.0001
    31	9.79916	0	0.0001
    32	9.79892	0	0.0001
    33	9.79868	0	0.0001
    34	9.79844	0	0.0001
    35	9.79819	0	0.0001
    36	9.79795	0	0.0001
    37	9.79771	0	0.0001
    38	9.79746	0	0.0001
    39	9.79722	0	0.0001
    40	9.79698	0	0.0001
    41	9.79673	0	0.0001
    42	9.79649	0	0.0001
    43	9.79625	0	0.0001
    44	9.79601	0	0.0001
    45	9.79576	0	0.0001
    46	9.79549	0	0.0001
    47	9.79525	0	0.0001
    48	9.79503	0	0.0001
    49	9.79479	0	0.0001
    50	9.79455	0	0.0001
    51	9.79428	0	0.0001
    52	9.79406	0	0.0001
    53	9.79379	0	0.0001
    54	9.79355	0	0.0001
    55	9.7933	0	0.0001
    56	9.79306	0	0.0001
    57	9.79285	0	0.0001
    58	9.79261	0	0.0001
    59	9.79236	0	0.0001
    60	9.79212	0	0.0001
    61	9.79188	0	0.0001
    62	9.79163	0	0.0001
    63	9.79139	0	0.0001
    64	9.79115	0	0.0001
    65	9.79091	0	0.0001
    66	9.79066	0	0.0001
    67	9.79042	0	0.0001
    68	9.79018	0	0.0001
    69	9.78994	0	0.0001
    70	9.78969	0	0.0001
    71	9.78945	0	0.0001
    72	9.78918	0	0.0001
    73	9.78897	0	0.0001
    74	9.78869	0	0.0001
    75	9.78845	0	0.0001
    76	9.78821	0	0.0001
    77	9.78796	0	0.0001
    78	9.78775	0	0.0001
    79	9.78748	0	0.0001
    80	9.78724	0	0.0001
    81	9.78699	0	0.0001
    82	9.78675	0	0.0001
    83	9.78651	0	0.0001
    84	9.78626	0	0.0001
    85	9.78602	0	0.0001
    86	9.78578	0	0.0001
    87	9.78554	0	0.0001
    88	9.78529	0	0.0001
    89	9.78505	0	0.0001
    90	9.78481	0	0.0001
    91	9.78457	0	0.0001
    92	9.78432	0	0.0001
    93	9.78408	0	0.0001
    94	9.78384	0	0.0001
    95	9.7836	0	0.0001
    96	9.78336	0	0.0001
    97	9.78311	0	0.0001
    98	9.78287	0	0.0001
    99	9.78263	0	0.0001
   100	9.78239	0	0.0001
   101	9.78214	0	0.0001

Measurement: tr1
  step	tr1	FROM	TO
     1	1.8838e-007	2.01446e-005	2.0333e-005
     2	1.88433e-007	2.01446e-005	2.0333e-005
     3	1.88487e-007	2.01446e-005	2.03331e-005
     4	1.8854e-007	2.01446e-005	2.03331e-005
     5	1.88593e-007	2.01446e-005	2.03332e-005
     6	1.88647e-007	2.01446e-005	2.03332e-005
     7	1.887e-007	2.01446e-005	2.03333e-005
     8	1.88753e-007	2.01446e-005	2.03334e-005
     9	1.88807e-007	2.01446e-005	2.03334e-005
    10	1.8886e-007	2.01446e-005	2.03335e-005
    11	1.88914e-007	2.01446e-005	2.03335e-005
    12	1.88967e-007	2.01446e-005	2.03336e-005
    13	1.8902e-007	2.01446e-005	2.03336e-005
    14	1.89074e-007	2.01446e-005	2.03337e-005
    15	1.89127e-007	2.01446e-005	2.03338e-005
    16	1.8918e-007	2.01446e-005	2.03338e-005
    17	1.89234e-007	2.01446e-005	2.03339e-005
    18	1.89287e-007	2.01446e-005	2.03339e-005
    19	1.8934e-007	2.01446e-005	2.0334e-005
    20	1.89394e-007	2.01446e-005	2.0334e-005
    21	1.89447e-007	2.01446e-005	2.03341e-005
    22	1.89501e-007	2.01447e-005	2.03342e-005
    23	1.89554e-007	2.01447e-005	2.03342e-005
    24	1.89607e-007	2.01447e-005	2.03343e-005
    25	1.89661e-007	2.01447e-005	2.03343e-005
    26	1.89714e-007	2.01447e-005	2.03344e-005
    27	1.89767e-007	2.01447e-005	2.03344e-005
    28	1.89821e-007	2.01447e-005	2.03345e-005
    29	1.89874e-007	2.01447e-005	2.03345e-005
    30	1.89927e-007	2.01447e-005	2.03346e-005
    31	1.89981e-007	2.01447e-005	2.03347e-005
    32	1.90034e-007	2.01447e-005	2.03347e-005
    33	1.90087e-007	2.01447e-005	2.03348e-005
    34	1.90141e-007	2.01447e-005	2.03348e-005
    35	1.90194e-007	2.01447e-005	2.03349e-005
    36	1.90247e-007	2.01447e-005	2.03349e-005
    37	1.90301e-007	2.01447e-005	2.0335e-005
    38	1.90354e-007	2.01447e-005	2.03351e-005
    39	1.90407e-007	2.01447e-005	2.03351e-005
    40	1.90461e-007	2.01447e-005	2.03352e-005
    41	1.90514e-007	2.01447e-005	2.03352e-005
    42	1.90567e-007	2.01447e-005	2.03353e-005
    43	1.9062e-007	2.01447e-005	2.03353e-005
    44	1.90674e-007	2.01447e-005	2.03354e-005
    45	1.90727e-007	2.01447e-005	2.03355e-005
    46	1.90779e-007	2.01447e-005	2.03355e-005
    47	1.90832e-007	2.01447e-005	2.03356e-005
    48	1.90887e-007	2.01447e-005	2.03356e-005
    49	1.9094e-007	2.01447e-005	2.03357e-005
    50	1.90994e-007	2.01447e-005	2.03357e-005
    51	1.91045e-007	2.01447e-005	2.03358e-005
    52	1.911e-007	2.01447e-005	2.03358e-005
    53	1.91152e-007	2.01447e-005	2.03359e-005
    54	1.91205e-007	2.01448e-005	2.0336e-005
    55	1.91259e-007	2.01448e-005	2.0336e-005
    56	1.91312e-007	2.01448e-005	2.03361e-005
    57	1.91395e-007	2.01448e-005	2.03362e-005
    58	1.91449e-007	2.01448e-005	2.03362e-005
    59	1.91502e-007	2.01448e-005	2.03363e-005
    60	1.91555e-007	2.01448e-005	2.03363e-005
    61	1.91609e-007	2.01448e-005	2.03364e-005
    62	1.91662e-007	2.01448e-005	2.03364e-005
    63	1.91715e-007	2.01448e-005	2.03365e-005
    64	1.91769e-007	2.01448e-005	2.03366e-005
    65	1.91822e-007	2.01448e-005	2.03366e-005
    66	1.91876e-007	2.01448e-005	2.03367e-005
    67	1.91929e-007	2.01448e-005	2.03367e-005
    68	1.91982e-007	2.01448e-005	2.03368e-005
    69	1.92036e-007	2.01448e-005	2.03368e-005
    70	1.92089e-007	2.01448e-005	2.03369e-005
    71	1.92142e-007	2.01448e-005	2.03369e-005
    72	1.92194e-007	2.01448e-005	2.0337e-005
    73	1.92249e-007	2.01448e-005	2.03371e-005
    74	1.92301e-007	2.01448e-005	2.03371e-005
    75	1.92354e-007	2.01448e-005	2.03372e-005
    76	1.92407e-007	2.01448e-005	2.03372e-005
    77	1.92461e-007	2.01448e-005	2.03373e-005
    78	1.92516e-007	2.01448e-005	2.03373e-005
    79	1.92568e-007	2.01448e-005	2.03374e-005
    80	1.92621e-007	2.01448e-005	2.03375e-005
    81	1.92674e-007	2.01448e-005	2.03375e-005
    82	1.92728e-007	2.01448e-005	2.03376e-005
    83	1.92781e-007	2.01448e-005	2.03376e-005
    84	1.92834e-007	2.01448e-005	2.03377e-005
    85	1.92888e-007	2.01448e-005	2.03377e-005
    86	1.92941e-007	2.01449e-005	2.03378e-005
    87	1.92994e-007	2.01449e-005	2.03378e-005
    88	1.93048e-007	2.01449e-005	2.03379e-005
    89	1.93101e-007	2.01449e-005	2.0338e-005
    90	1.93154e-007	2.01449e-005	2.0338e-005
    91	1.93208e-007	2.01449e-005	2.03381e-005
    92	1.93261e-007	2.01449e-005	2.03381e-005
    93	1.93315e-007	2.01449e-005	2.03382e-005
    94	1.93368e-007	2.01449e-005	2.03382e-005
    95	1.93421e-007	2.01449e-005	2.03383e-005
    96	1.93475e-007	2.01449e-005	2.03384e-005
    97	1.93528e-007	2.01449e-005	2.03384e-005
    98	1.93581e-007	2.01449e-005	2.03385e-005
    99	1.93635e-007	2.01449e-005	2.03385e-005
   100	1.93688e-007	2.01449e-005	2.03386e-005
   101	1.93741e-007	2.01449e-005	2.03386e-005

Measurement: tr2
  step	tr2	FROM	TO
     1	4.24943e-007	6.12087e-005	6.16336e-005
     2	4.25176e-007	6.12082e-005	6.16334e-005
     3	4.18441e-007	6.12078e-005	6.16263e-005
     4	4.24389e-007	6.12078e-005	6.16322e-005
     5	4.24593e-007	6.12074e-005	6.1632e-005
     6	4.24723e-007	6.1207e-005	6.16317e-005
     7	4.19199e-007	6.12066e-005	6.16258e-005
     8	4.19289e-007	6.12062e-005	6.16255e-005
     9	4.18385e-007	6.12058e-005	6.16242e-005
    10	4.1772e-007	6.12054e-005	6.16231e-005
    11	4.17119e-007	6.1205e-005	6.16221e-005
    12	4.16453e-007	6.12046e-005	6.1621e-005
    13	4.16562e-007	6.1204e-005	6.16205e-005
    14	4.14658e-007	6.12036e-005	6.16182e-005
    15	4.13389e-007	6.12032e-005	6.16165e-005
    16	4.12089e-007	6.12028e-005	6.16148e-005
    17	4.11066e-007	6.12024e-005	6.16134e-005
    18	4.09863e-007	6.12019e-005	6.16118e-005
    19	4.1005e-007	6.12015e-005	6.16116e-005
    20	4.10644e-007	6.12011e-005	6.16118e-005
    21	4.11293e-007	6.12008e-005	6.1612e-005
    22	4.11996e-007	6.12004e-005	6.16124e-005
    23	4.12754e-007	6.12e-005	6.16127e-005
    24	4.13576e-007	6.11996e-005	6.16131e-005
    25	4.1445e-007	6.11992e-005	6.16136e-005
    26	4.15329e-007	6.11988e-005	6.16141e-005
    27	4.16235e-007	6.11984e-005	6.16146e-005
    28	4.17055e-007	6.1198e-005	6.16151e-005
    29	4.1783e-007	6.11977e-005	6.16155e-005
    30	4.18702e-007	6.11973e-005	6.1616e-005
    31	4.18695e-007	6.11969e-005	6.16156e-005
    32	4.18716e-007	6.11966e-005	6.16153e-005
    33	4.18767e-007	6.11962e-005	6.1615e-005
    34	4.1885e-007	6.11958e-005	6.16147e-005
    35	4.18967e-007	6.11955e-005	6.16144e-005
    36	4.1912e-007	6.11951e-005	6.16142e-005
    37	4.19311e-007	6.11948e-005	6.16141e-005
    38	4.19577e-007	6.11944e-005	6.16139e-005
    39	4.19915e-007	6.1194e-005	6.16139e-005
    40	4.20858e-007	6.11936e-005	6.16144e-005
    41	4.22141e-007	6.11932e-005	6.16153e-005
    42	4.11545e-007	6.11928e-005	6.16044e-005
    43	4.11551e-007	6.11925e-005	6.1604e-005
    44	4.11552e-007	6.11921e-005	6.16036e-005
    45	4.11549e-007	6.11917e-005	6.16032e-005
    46	4.13621e-007	6.11919e-005	6.16056e-005
    47	4.17851e-007	6.11911e-005	6.1609e-005
    48	4.13468e-007	6.11912e-005	6.16047e-005
    49	4.18366e-007	6.11904e-005	6.16088e-005
    50	4.19469e-007	6.11902e-005	6.16097e-005
    51	4.11633e-007	6.11897e-005	6.16014e-005
    52	4.15334e-007	6.11892e-005	6.16045e-005
    53	4.11774e-007	6.11889e-005	6.16007e-005
    54	4.17797e-007	6.11885e-005	6.16063e-005
    55	4.12949e-007	6.11885e-005	6.16014e-005
    56	4.09029e-007	6.11881e-005	6.15971e-005
    57	4.10846e-007	6.11875e-005	6.15984e-005
    58	4.21246e-007	6.11871e-005	6.16083e-005
    59	4.11436e-007	6.11869e-005	6.15983e-005
    60	4.12746e-007	6.11864e-005	6.15991e-005
    61	4.09715e-007	6.1186e-005	6.15958e-005
    62	4.11333e-007	6.11855e-005	6.15969e-005
    63	4.12136e-007	6.11851e-005	6.15972e-005
    64	4.17317e-007	6.11846e-005	6.16019e-005
    65	4.11439e-007	6.11844e-005	6.15958e-005
    66	4.13539e-007	6.11843e-005	6.15978e-005
    67	4.11406e-007	6.11836e-005	6.1595e-005
    68	4.12277e-007	6.11832e-005	6.15955e-005
    69	4.1624e-007	6.11827e-005	6.15989e-005
    70	4.11777e-007	6.11825e-005	6.15942e-005
    71	4.13413e-007	6.11821e-005	6.15955e-005
    72	4.11858e-007	6.11819e-005	6.15937e-005
    73	4.07792e-007	6.11816e-005	6.15894e-005
    74	4.107e-007	6.11813e-005	6.1592e-005
    75	4.15857e-007	6.11803e-005	6.15962e-005
    76	4.16887e-007	6.11804e-005	6.15973e-005
    77	4.11724e-007	6.11799e-005	6.15917e-005
    78	4.13563e-007	6.11795e-005	6.15931e-005
    79	4.13111e-007	6.1179e-005	6.15921e-005
    80	4.11921e-007	6.11788e-005	6.15907e-005
    81	4.11811e-007	6.11781e-005	6.159e-005
    82	4.06541e-007	6.11778e-005	6.15844e-005
    83	4.15136e-007	6.11775e-005	6.15927e-005
    84	4.12156e-007	6.1177e-005	6.15891e-005
    85	4.17363e-007	6.11765e-005	6.15939e-005
    86	4.19486e-007	6.11762e-005	6.15957e-005
    87	4.13066e-007	6.1176e-005	6.15891e-005
    88	4.19597e-007	6.11756e-005	6.15952e-005
    89	4.19102e-007	6.11751e-005	6.15942e-005
    90	4.1318e-007	6.11748e-005	6.1588e-005
    91	4.20496e-007	6.11746e-005	6.15951e-005
    92	4.07124e-007	6.11743e-005	6.15814e-005
    93	4.16709e-007	6.11739e-005	6.15906e-005
    94	4.20144e-007	6.11736e-005	6.15937e-005
    95	4.20282e-007	6.11732e-005	6.15935e-005
    96	4.18909e-007	6.1173e-005	6.15919e-005
    97	4.14202e-007	6.11726e-005	6.15868e-005
    98	4.10911e-007	6.11721e-005	6.1583e-005
    99	4.19739e-007	6.11717e-005	6.15915e-005
   100	4.19899e-007	6.11713e-005	6.15912e-005
   101	4.19741e-007	6.1171e-005	6.15907e-005

Measurement: vth
  step	v(n004)	at
     1	1.88283	2.01041e-005
     2	1.88283	2.01041e-005
     3	1.88283	2.01041e-005
     4	1.88283	2.01041e-005
     5	1.88283	2.01041e-005
     6	1.88283	2.01041e-005
     7	1.88284	2.01041e-005
     8	1.88284	2.01041e-005
     9	1.88284	2.01041e-005
    10	1.88284	2.01041e-005
    11	1.88284	2.01041e-005
    12	1.88284	2.01041e-005
    13	1.88284	2.01041e-005
    14	1.88285	2.01041e-005
    15	1.88285	2.01041e-005
    16	1.88285	2.01041e-005
    17	1.88285	2.01041e-005
    18	1.88285	2.01041e-005
    19	1.88285	2.01041e-005
    20	1.88286	2.01041e-005
    21	1.88286	2.01041e-005
    22	1.88286	2.01041e-005
    23	1.88286	2.01041e-005
    24	1.88286	2.01041e-005
    25	1.88286	2.01041e-005
    26	1.88287	2.01041e-005
    27	1.88287	2.01041e-005
    28	1.88287	2.01041e-005
    29	1.88287	2.01041e-005
    30	1.88287	2.01041e-005
    31	1.88287	2.01041e-005
    32	1.88287	2.01041e-005
    33	1.88288	2.01041e-005
    34	1.88288	2.01041e-005
    35	1.88288	2.01041e-005
    36	1.88288	2.01041e-005
    37	1.88288	2.01041e-005
    38	1.88288	2.01041e-005
    39	1.88289	2.01041e-005
    40	1.88289	2.01041e-005
    41	1.88289	2.01041e-005
    42	1.88289	2.01041e-005
    43	1.88289	2.01041e-005
    44	1.88289	2.01041e-005
    45	1.8829	2.01041e-005
    46	1.8829	2.01041e-005
    47	1.8829	2.01041e-005
    48	1.8829	2.01041e-005
    49	1.8829	2.01041e-005
    50	1.8829	2.01041e-005
    51	1.8829	2.01041e-005
    52	1.88291	2.01041e-005
    53	1.88291	2.01041e-005
    54	1.88291	2.01041e-005
    55	1.88291	2.01041e-005
    56	1.88291	2.01041e-005
    57	1.88291	2.01041e-005
    58	1.88292	2.01041e-005
    59	1.88292	2.01041e-005
    60	1.88292	2.01041e-005
    61	1.88292	2.01041e-005
    62	1.88292	2.01041e-005
    63	1.88292	2.01041e-005
    64	1.88293	2.01041e-005
    65	1.88293	2.01041e-005
    66	1.88293	2.01041e-005
    67	1.88293	2.01041e-005
    68	1.88293	2.01041e-005
    69	1.88293	2.01041e-005
    70	1.88293	2.01041e-005
    71	1.88294	2.01041e-005
    72	1.88294	2.01041e-005
    73	1.88294	2.01041e-005
    74	1.88294	2.01041e-005
    75	1.88294	2.01041e-005
    76	1.88294	2.01041e-005
    77	1.88295	2.01041e-005
    78	1.88295	2.01041e-005
    79	1.88295	2.01041e-005
    80	1.88295	2.01041e-005
    81	1.88295	2.01041e-005
    82	1.88295	2.01041e-005
    83	1.88295	2.01041e-005
    84	1.88296	2.01041e-005
    85	1.88296	2.01041e-005
    86	1.88296	2.01041e-005
    87	1.88296	2.01041e-005
    88	1.88296	2.01041e-005
    89	1.88296	2.01041e-005
    90	1.88297	2.01041e-005
    91	1.88297	2.01041e-005
    92	1.88297	2.01041e-005
    93	1.88297	2.01041e-005
    94	1.88297	2.01041e-005
    95	1.88297	2.01041e-005
    96	1.88298	2.01041e-005
    97	1.88298	2.01041e-005
    98	1.88298	2.01041e-005
    99	1.88298	2.01041e-005
   100	1.88298	2.01041e-005
   101	1.88298	2.01041e-005


Date: Wed Mar 23 09:35:11 2022
Total elapsed time: 1.496 seconds.

tnom = 27
temp = 27
method = modified trap
totiter = 2488
traniter = 2458
tranpoints = 1115
accept = 1091
rejected = 24
matrix size = 11
fillins = 0
solver = Normal
Matrix Compiler1: 674 bytes object code size  0.1/0.1/[0.0]
Matrix Compiler2: 847 bytes object code size  0.1/0.1/[0.1]

