Circuit: * C:\Users\user\Documents\LTspiceXVII\file\Montecarlo\monte_SiC.asc

Direct Newton iteration for .op point succeeded.
.step tol1=0
.step tol1=0.01
.step tol1=0.02
.step tol1=0.03
.step tol1=0.04
.step tol1=0.05
.step tol1=0.06
.step tol1=0.07
.step tol1=0.08
.step tol1=0.09
.step tol1=0.1
.step tol1=0.11
.step tol1=0.12
.step tol1=0.13
.step tol1=0.14
.step tol1=0.15
.step tol1=0.16
.step tol1=0.17
.step tol1=0.18
.step tol1=0.19
.step tol1=0.2
.step tol1=0.21
.step tol1=0.22
.step tol1=0.23
.step tol1=0.24
.step tol1=0.25
.step tol1=0.26
.step tol1=0.27
.step tol1=0.28
.step tol1=0.29
.step tol1=0.3
.step tol1=0.31
.step tol1=0.32
.step tol1=0.33
.step tol1=0.34
.step tol1=0.35
.step tol1=0.36
.step tol1=0.37
.step tol1=0.38
.step tol1=0.39
.step tol1=0.4
.step tol1=0.41
.step tol1=0.42
.step tol1=0.43
.step tol1=0.44
.step tol1=0.45
.step tol1=0.46
.step tol1=0.47
.step tol1=0.48
.step tol1=0.49
.step tol1=0.5
.step tol1=0.51
.step tol1=0.52
.step tol1=0.53
.step tol1=0.54
.step tol1=0.55
.step tol1=0.56
.step tol1=0.57
.step tol1=0.58
.step tol1=0.59
.step tol1=0.6
.step tol1=0.61
.step tol1=0.62
.step tol1=0.63
.step tol1=0.64
.step tol1=0.65
.step tol1=0.66
.step tol1=0.67
.step tol1=0.68
.step tol1=0.69
.step tol1=0.7
.step tol1=0.71
.step tol1=0.72
.step tol1=0.73
.step tol1=0.74
.step tol1=0.75
.step tol1=0.76
.step tol1=0.77
.step tol1=0.78
.step tol1=0.79
.step tol1=0.8
.step tol1=0.81
.step tol1=0.82
.step tol1=0.83
.step tol1=0.84
.step tol1=0.85
.step tol1=0.86
.step tol1=0.87
.step tol1=0.88
.step tol1=0.89
.step tol1=0.9
.step tol1=0.91
.step tol1=0.92
.step tol1=0.93
.step tol1=0.94
.step tol1=0.95
.step tol1=0.96
.step tol1=0.97
.step tol1=0.98
.step tol1=0.99
.step tol1=1


Measurement: imax
  step	MAX(-i(v1))	FROM	TO
     1	9.80646	0	0.0001
     2	9.80646	0	0.0001
     3	9.80646	0	0.0001
     4	9.80646	0	0.0001
     5	9.80645	0	0.0001
     6	9.80645	0	0.0001
     7	9.80645	0	0.0001
     8	9.80645	0	0.0001
     9	9.80645	0	0.0001
    10	9.80644	0	0.0001
    11	9.80644	0	0.0001
    12	9.80643	0	0.0001
    13	9.80643	0	0.0001
    14	9.80643	0	0.0001
    15	9.80643	0	0.0001
    16	9.80644	0	0.0001
    17	9.80644	0	0.0001
    18	9.80644	0	0.0001
    19	9.80644	0	0.0001
    20	9.80646	0	0.0001
    21	9.80646	0	0.0001
    22	9.80647	0	0.0001
    23	9.80647	0	0.0001
    24	9.80647	0	0.0001
    25	9.80647	0	0.0001
    26	9.80643	0	0.0001
    27	9.80643	0	0.0001
    28	9.80648	0	0.0001
    29	9.80643	0	0.0001
    30	9.80643	0	0.0001
    31	9.80643	0	0.0001
    32	9.80643	0	0.0001
    33	9.80643	0	0.0001
    34	9.80643	0	0.0001
    35	9.80643	0	0.0001
    36	9.80643	0	0.0001
    37	9.80643	0	0.0001
    38	9.80643	0	0.0001
    39	9.80643	0	0.0001
    40	9.80643	0	0.0001
    41	9.80643	0	0.0001
    42	9.80643	0	0.0001
    43	9.80643	0	0.0001
    44	9.80643	0	0.0001
    45	9.80643	0	0.0001
    46	9.80643	0	0.0001
    47	9.80643	0	0.0001
    48	9.80643	0	0.0001
    49	9.80643	0	0.0001
    50	9.80643	0	0.0001
    51	9.80643	0	0.0001
    52	9.80643	0	0.0001
    53	9.80643	0	0.0001
    54	9.80649	0	0.0001
    55	9.80648	0	0.0001
    56	9.80644	0	0.0001
    57	9.80643	0	0.0001
    58	9.80643	0	0.0001
    59	9.80643	0	0.0001
    60	9.80643	0	0.0001
    61	9.80648	0	0.0001
    62	9.80648	0	0.0001
    63	9.80648	0	0.0001
    64	9.80643	0	0.0001
    65	9.80643	0	0.0001
    66	9.80643	0	0.0001
    67	9.80646	0	0.0001
    68	9.80643	0	0.0001
    69	9.80643	0	0.0001
    70	9.80643	0	0.0001
    71	9.80643	0	0.0001
    72	9.80645	0	0.0001
    73	9.80648	0	0.0001
    74	9.80643	0	0.0001
    75	9.80646	0	0.0001
    76	9.80645	0	0.0001
    77	9.80645	0	0.0001
    78	9.80643	0	0.0001
    79	9.80645	0	0.0001
    80	9.80645	0	0.0001
    81	9.80646	0	0.0001
    82	9.80647	0	0.0001
    83	9.80647	0	0.0001
    84	9.80643	0	0.0001
    85	9.80647	0	0.0001
    86	9.80647	0	0.0001
    87	9.80646	0	0.0001
    88	9.80646	0	0.0001
    89	9.80645	0	0.0001
    90	9.80643	0	0.0001
    91	9.80644	0	0.0001
    92	9.80644	0	0.0001
    93	9.80643	0	0.0001
    94	9.80643	0	0.0001
    95	9.80647	0	0.0001
    96	9.80645	0	0.0001
    97	9.80643	0	0.0001
    98	9.80643	0	0.0001
    99	9.80643	0	0.0001
   100	9.80643	0	0.0001
   101	9.80643	0	0.0001

Measurement: tr1
  step	tr1	FROM	TO
     1	1.8838e-007	2.01446e-005	2.0333e-005
     2	1.88621e-007	2.01446e-005	2.03332e-005
     3	1.88856e-007	2.01446e-005	2.03335e-005
     4	1.89092e-007	2.01447e-005	2.03338e-005
     5	1.89473e-007	2.01447e-005	2.03342e-005
     6	1.89799e-007	2.01447e-005	2.03345e-005
     7	1.90093e-007	2.01448e-005	2.03349e-005
     8	1.90382e-007	2.01448e-005	2.03352e-005
     9	1.90688e-007	2.01448e-005	2.03355e-005
    10	1.91003e-007	2.01449e-005	2.03359e-005
    11	1.91317e-007	2.01449e-005	2.03362e-005
    12	1.91634e-007	2.01449e-005	2.03366e-005
    13	1.91954e-007	2.0145e-005	2.03369e-005
    14	1.92271e-007	2.0145e-005	2.03373e-005
    15	1.92582e-007	2.01451e-005	2.03376e-005
    16	1.92895e-007	2.01451e-005	2.0338e-005
    17	1.93208e-007	2.01451e-005	2.03383e-005
    18	1.93519e-007	2.01452e-005	2.03387e-005
    19	1.9383e-007	2.01452e-005	2.0339e-005
    20	1.93174e-007	2.01452e-005	2.03384e-005
    21	1.93118e-007	2.01453e-005	2.03384e-005
    22	1.93328e-007	2.01453e-005	2.03386e-005
    23	1.93534e-007	2.01454e-005	2.03389e-005
    24	1.93741e-007	2.01454e-005	2.03391e-005
    25	1.93941e-007	2.01454e-005	2.03394e-005
    26	1.94136e-007	2.01455e-005	2.03396e-005
    27	1.94326e-007	2.01455e-005	2.03398e-005
    28	1.94519e-007	2.01456e-005	2.03401e-005
    29	1.94704e-007	2.01456e-005	2.03403e-005
    30	1.94887e-007	2.01456e-005	2.03405e-005
    31	1.95067e-007	2.01457e-005	2.03407e-005
    32	1.95243e-007	2.01457e-005	2.0341e-005
    33	1.95414e-007	2.01458e-005	2.03412e-005
    34	1.95581e-007	2.01458e-005	2.03414e-005
    35	1.95743e-007	2.01458e-005	2.03416e-005
    36	1.95905e-007	2.01459e-005	2.03418e-005
    37	1.96067e-007	2.01459e-005	2.0342e-005
    38	1.96232e-007	2.0146e-005	2.03422e-005
    39	1.96431e-007	2.0146e-005	2.03424e-005
    40	1.96628e-007	2.0146e-005	2.03427e-005
    41	1.96821e-007	2.01461e-005	2.03429e-005
    42	1.9701e-007	2.01461e-005	2.03431e-005
    43	1.97196e-007	2.01462e-005	2.03434e-005
    44	1.97378e-007	2.01462e-005	2.03436e-005
    45	1.97556e-007	2.01462e-005	2.03438e-005
    46	1.97731e-007	2.01463e-005	2.0344e-005
    47	1.97921e-007	2.01463e-005	2.03442e-005
    48	1.98076e-007	2.01464e-005	2.03444e-005
    49	1.98248e-007	2.01464e-005	2.03447e-005
    50	1.98418e-007	2.01465e-005	2.03449e-005
    51	1.9859e-007	2.01465e-005	2.03451e-005
    52	1.98789e-007	2.01465e-005	2.03453e-005
    53	1.9899e-007	2.01466e-005	2.03456e-005
    54	1.99193e-007	2.01466e-005	2.03458e-005
    55	1.99407e-007	2.01466e-005	2.03461e-005
    56	1.99623e-007	2.01467e-005	2.03463e-005
    57	1.99842e-007	2.01467e-005	2.03466e-005
    58	2.00062e-007	2.01468e-005	2.03468e-005
    59	2.00283e-007	2.01468e-005	2.03471e-005
    60	2.00504e-007	2.01468e-005	2.03473e-005
    61	2.00729e-007	2.01469e-005	2.03476e-005
    62	2.00953e-007	2.01469e-005	2.03478e-005
    63	2.01177e-007	2.01469e-005	2.03481e-005
    64	2.0159e-007	2.0147e-005	2.03486e-005
    65	2.03362e-007	2.0147e-005	2.03503e-005
    66	2.04189e-007	2.0147e-005	2.03512e-005
    67	2.04361e-007	2.01469e-005	2.03513e-005
    68	2.02516e-007	2.0147e-005	2.03495e-005
    69	2.04291e-007	2.01472e-005	2.03515e-005
    70	2.03659e-007	2.01472e-005	2.03509e-005
    71	2.04989e-007	2.01471e-005	2.03521e-005
    72	2.0562e-007	2.01472e-005	2.03528e-005
    73	2.03309e-007	2.01472e-005	2.03505e-005
    74	2.04395e-007	2.01474e-005	2.03517e-005
    75	2.06034e-007	2.01472e-005	2.03533e-005
    76	2.05005e-007	2.01474e-005	2.03524e-005
    77	2.05989e-007	2.01474e-005	2.03534e-005
    78	2.04943e-007	2.01476e-005	2.03525e-005
    79	2.06566e-007	2.01474e-005	2.0354e-005
    80	2.07017e-007	2.01475e-005	2.03545e-005
    81	2.06971e-007	2.01474e-005	2.03544e-005
    82	2.04584e-007	2.01475e-005	2.03521e-005
    83	2.07063e-007	2.01475e-005	2.03546e-005
    84	2.07048e-007	2.01476e-005	2.03547e-005
    85	2.05719e-007	2.01476e-005	2.03533e-005
    86	2.0656e-007	2.01476e-005	2.03542e-005
    87	2.08036e-007	2.01476e-005	2.03557e-005
    88	2.08358e-007	2.01477e-005	2.03561e-005
    89	2.08001e-007	2.01478e-005	2.03558e-005
    90	2.0747e-007	2.01479e-005	2.03554e-005
    91	2.08495e-007	2.0148e-005	2.03565e-005
    92	2.08738e-007	2.0148e-005	2.03567e-005
    93	2.08785e-007	2.0148e-005	2.03568e-005
    94	2.0653e-007	2.0148e-005	2.03545e-005
    95	2.08885e-007	2.0148e-005	2.03568e-005
    96	2.09303e-007	2.0148e-005	2.03573e-005
    97	2.09528e-007	2.01482e-005	2.03577e-005
    98	2.07902e-007	2.01482e-005	2.03561e-005
    99	2.07568e-007	2.01483e-005	2.03558e-005
   100	2.06221e-007	2.01483e-005	2.03545e-005
   101	2.06566e-007	2.01483e-005	2.03549e-005

Measurement: tr2
  step	tr2	FROM	TO
     1	4.24943e-007	6.12087e-005	6.16336e-005
     2	4.25464e-007	6.12087e-005	6.16342e-005
     3	4.25978e-007	6.12088e-005	6.16348e-005
     4	4.21489e-007	6.12089e-005	6.16304e-005
     5	4.21388e-007	6.1209e-005	6.16304e-005
     6	4.21221e-007	6.1209e-005	6.16303e-005
     7	4.20983e-007	6.12091e-005	6.16301e-005
     8	4.19621e-007	6.12092e-005	6.16288e-005
     9	4.1911e-007	6.12093e-005	6.16284e-005
    10	4.18257e-007	6.12094e-005	6.16276e-005
    11	4.1762e-007	6.12095e-005	6.16271e-005
    12	4.29969e-007	6.12101e-005	6.16401e-005
    13	4.17392e-007	6.12106e-005	6.1628e-005
    14	4.29029e-007	6.12103e-005	6.16393e-005
    15	4.30376e-007	6.12104e-005	6.16408e-005
    16	4.31338e-007	6.12101e-005	6.16414e-005
    17	4.20253e-007	6.12099e-005	6.16302e-005
    18	4.21545e-007	6.121e-005	6.16315e-005
    19	4.2282e-007	6.12101e-005	6.16329e-005
    20	4.23671e-007	6.12102e-005	6.16339e-005
    21	4.25e-007	6.12103e-005	6.16353e-005
    22	4.2638e-007	6.12104e-005	6.16368e-005
    23	4.27788e-007	6.12105e-005	6.16383e-005
    24	4.29604e-007	6.12107e-005	6.16403e-005
    25	4.21777e-007	6.12116e-005	6.16334e-005
    26	4.21927e-007	6.12112e-005	6.16331e-005
    27	4.24296e-007	6.12114e-005	6.16357e-005
    28	4.23298e-007	6.12118e-005	6.16351e-005
    29	4.28708e-007	6.12112e-005	6.16399e-005
    30	4.35974e-007	6.12112e-005	6.16471e-005
    31	4.36943e-007	6.12112e-005	6.16482e-005
    32	4.37631e-007	6.12113e-005	6.16489e-005
    33	4.37752e-007	6.12113e-005	6.16491e-005
    34	4.32408e-007	6.12114e-005	6.16438e-005
    35	4.31647e-007	6.12114e-005	6.16431e-005
    36	4.31642e-007	6.12115e-005	6.16432e-005
    37	4.31598e-007	6.12116e-005	6.16432e-005
    38	4.31536e-007	6.12117e-005	6.16432e-005
    39	4.31479e-007	6.12118e-005	6.16433e-005
    40	4.31378e-007	6.12119e-005	6.16432e-005
    41	4.31228e-007	6.1212e-005	6.16432e-005
    42	4.31022e-007	6.12121e-005	6.16431e-005
    43	4.30754e-007	6.12121e-005	6.16429e-005
    44	4.30415e-007	6.12122e-005	6.16427e-005
    45	4.29968e-007	6.12123e-005	6.16423e-005
    46	4.29884e-007	6.12124e-005	6.16423e-005
    47	4.30622e-007	6.12126e-005	6.16432e-005
    48	4.31323e-007	6.12127e-005	6.1644e-005
    49	4.32033e-007	6.12128e-005	6.16448e-005
    50	4.3275e-007	6.12129e-005	6.16456e-005
    51	4.33474e-007	6.1213e-005	6.16465e-005
    52	4.34327e-007	6.12131e-005	6.16475e-005
    53	4.36008e-007	6.1214e-005	6.165e-005
    54	4.38248e-007	6.12139e-005	6.16522e-005
    55	4.36894e-007	6.1214e-005	6.16509e-005
    56	4.39309e-007	6.12132e-005	6.16525e-005
    57	4.39073e-007	6.1214e-005	6.16531e-005
    58	4.38526e-007	6.12143e-005	6.16528e-005
    59	4.40751e-007	6.12142e-005	6.16549e-005
    60	4.40568e-007	6.12143e-005	6.16549e-005
    61	4.41194e-007	6.12135e-005	6.16547e-005
    62	4.4097e-007	6.12145e-005	6.16555e-005
    63	4.37089e-007	6.12146e-005	6.16517e-005
    64	4.42373e-007	6.12142e-005	6.16566e-005
    65	4.43454e-007	6.12143e-005	6.16578e-005
    66	4.44397e-007	6.12144e-005	6.16588e-005
    67	4.4641e-007	6.1215e-005	6.16615e-005
    68	4.42284e-007	6.12144e-005	6.16567e-005
    69	4.47478e-007	6.12147e-005	6.16622e-005
    70	4.48956e-007	6.12148e-005	6.16637e-005
    71	4.46392e-007	6.12138e-005	6.16601e-005
    72	4.46918e-007	6.12139e-005	6.16608e-005
    73	4.42425e-007	6.12154e-005	6.16578e-005
    74	4.48036e-007	6.12139e-005	6.1662e-005
    75	4.50564e-007	6.12157e-005	6.16662e-005
    76	4.5414e-007	6.12154e-005	6.16696e-005
    77	4.53249e-007	6.12158e-005	6.16691e-005
    78	4.50218e-007	6.12142e-005	6.16644e-005
    79	4.50735e-007	6.12143e-005	6.16651e-005
    80	4.51278e-007	6.12144e-005	6.16657e-005
    81	4.5182e-007	6.12144e-005	6.16663e-005
    82	4.52598e-007	6.12165e-005	6.16691e-005
    83	4.52902e-007	6.12146e-005	6.16675e-005
    84	4.5347e-007	6.12146e-005	6.16681e-005
    85	4.53984e-007	6.12147e-005	6.16687e-005
    86	4.5452e-007	6.12148e-005	6.16693e-005
    87	4.55055e-007	6.12148e-005	6.16699e-005
    88	4.55548e-007	6.12149e-005	6.16704e-005
    89	4.56058e-007	6.1215e-005	6.1671e-005
    90	4.56593e-007	6.1215e-005	6.16716e-005
    91	4.5431e-007	6.12162e-005	6.16705e-005
    92	4.55457e-007	6.12167e-005	6.16721e-005
    93	4.59014e-007	6.12157e-005	6.16747e-005
    94	4.58679e-007	6.12152e-005	6.16739e-005
    95	4.58015e-007	6.12173e-005	6.16753e-005
    96	4.5971e-007	6.12154e-005	6.16751e-005
    97	4.54173e-007	6.12176e-005	6.16718e-005
    98	4.53831e-007	6.12178e-005	6.16716e-005
    99	4.59036e-007	6.12159e-005	6.16749e-005
   100	4.595e-007	6.12159e-005	6.16754e-005
   101	4.59964e-007	6.1216e-005	6.1676e-005

Measurement: vth
  step	v(n004)	at
     1	1.88283	2.01041e-005
     2	1.88327	2.01041e-005
     3	1.8838	2.01042e-005
     4	1.88441	2.01042e-005
     5	1.88511	2.01042e-005
     6	1.8859	2.01043e-005
     7	1.88678	2.01043e-005
     8	1.88776	2.01043e-005
     9	1.88885	2.01044e-005
    10	1.89005	2.01044e-005
    11	1.89137	2.01045e-005
    12	1.8928	2.01045e-005
    13	1.89436	2.01046e-005
    14	1.89605	2.01047e-005
    15	1.89788	2.01047e-005
    16	1.89985	2.01048e-005
    17	1.90197	2.01049e-005
    18	1.90425	2.0105e-005
    19	1.90669	2.0105e-005
    20	1.88406	2.01043e-005
    21	1.88348	2.01043e-005
    22	1.88293	2.01043e-005
    23	1.8824	2.01043e-005
    24	1.88189	2.01043e-005
    25	1.8814	2.01042e-005
    26	1.88093	2.01042e-005
    27	1.88047	2.01042e-005
    28	1.88004	2.01042e-005
    29	1.87962	2.01042e-005
    30	1.87922	2.01042e-005
    31	1.87884	2.01042e-005
    32	1.87847	2.01042e-005
    33	1.87811	2.01042e-005
    34	1.87777	2.01042e-005
    35	1.87744	2.01042e-005
    36	1.87713	2.01042e-005
    37	1.87682	2.01042e-005
    38	1.87653	2.01042e-005
    39	1.87625	2.01042e-005
    40	1.87599	2.01042e-005
    41	1.87573	2.01042e-005
    42	1.87548	2.01042e-005
    43	1.87524	2.01042e-005
    44	1.87501	2.01042e-005
    45	1.87479	2.01042e-005
    46	1.87458	2.01042e-005
    47	1.87438	2.01042e-005
    48	1.87418	2.01042e-005
    49	1.874	2.01042e-005
    50	1.87382	2.01042e-005
    51	1.87364	2.01042e-005
    52	1.87348	2.01042e-005
    53	1.87332	2.01042e-005
    54	1.87316	2.01042e-005
    55	1.87283	2.01042e-005
    56	1.87248	2.01042e-005
    57	1.87217	2.01042e-005
    58	1.87188	2.01042e-005
    59	1.87161	2.01042e-005
    60	1.87136	2.01042e-005
    61	1.87113	2.01042e-005
    62	1.87092	2.01042e-005
    63	1.87072	2.01042e-005
    64	1.87054	2.01042e-005
    65	1.87401	2.01043e-005
    66	1.8749	2.01044e-005
    67	1.91547	2.01056e-005
    68	1.91827	2.01057e-005
    69	1.97327	2.01075e-005
    70	1.92903	2.01061e-005
    71	1.9328	2.01062e-005
    72	1.93651	2.01063e-005
    73	1.91635	2.01057e-005
    74	1.92794	2.01061e-005
    75	1.91453	2.01056e-005
    76	1.96128	2.01072e-005
    77	1.97967	2.01078e-005
    78	1.94996	2.01068e-005
    79	1.94575	2.01067e-005
    80	1.93432	2.01063e-005
    81	1.92449	2.0106e-005
    82	1.91668	2.01058e-005
    83	1.91374	2.01057e-005
    84	1.91544	2.01057e-005
    85	1.91475	2.01057e-005
    86	1.91807	2.01058e-005
    87	1.92371	2.0106e-005
    88	1.93024	2.01063e-005
    89	1.98485	2.01081e-005
    90	1.93469	2.01064e-005
    91	1.95325	2.01071e-005
    92	1.95044	2.0107e-005
    93	1.9601	2.01073e-005
    94	1.9828	2.01081e-005
    95	1.93359	2.01064e-005
    96	1.97329	2.01078e-005
    97	1.94386	2.01069e-005
    98	1.95215	2.01071e-005
    99	1.96114	2.01075e-005
   100	1.9709	2.01078e-005
   101	1.97518	2.01079e-005


Date: Wed Mar 23 09:33:59 2022
Total elapsed time: 1.203 seconds.

tnom = 27
temp = 27
method = modified trap
totiter = 2313
traniter = 2283
tranpoints = 1108
accept = 1086
rejected = 22
matrix size = 11
fillins = 0
solver = Normal
Matrix Compiler1:      38 opcodes  0.1/0.1/[0.1]
Matrix Compiler2: 847 bytes object code size  0.2/0.1/[0.1]

