Circuit: * C:\Users\user\Documents\LTspiceXVII\file\Montecarlo\monte_SiC.asc

Direct Newton iteration for .op point succeeded.
.step tol1=0
.step tol1=0.01
.step tol1=0.02
.step tol1=0.03
.step tol1=0.04
.step tol1=0.05
.step tol1=0.06
.step tol1=0.07
.step tol1=0.08
.step tol1=0.09
.step tol1=0.1
.step tol1=0.11
.step tol1=0.12
.step tol1=0.13
.step tol1=0.14
.step tol1=0.15
.step tol1=0.16
.step tol1=0.17
.step tol1=0.18
.step tol1=0.19
.step tol1=0.2
.step tol1=0.21
.step tol1=0.22
.step tol1=0.23
.step tol1=0.24
.step tol1=0.25
.step tol1=0.26
.step tol1=0.27
.step tol1=0.28
.step tol1=0.29
.step tol1=0.3
.step tol1=0.31
.step tol1=0.32
.step tol1=0.33
.step tol1=0.34
.step tol1=0.35
.step tol1=0.36
.step tol1=0.37
.step tol1=0.38
.step tol1=0.39
.step tol1=0.4
.step tol1=0.41
.step tol1=0.42
.step tol1=0.43
.step tol1=0.44
.step tol1=0.45
.step tol1=0.46
.step tol1=0.47
.step tol1=0.48
.step tol1=0.49
.step tol1=0.5
.step tol1=0.51
.step tol1=0.52
.step tol1=0.53
.step tol1=0.54
.step tol1=0.55
.step tol1=0.56
.step tol1=0.57
.step tol1=0.58
.step tol1=0.59
.step tol1=0.6
.step tol1=0.61
.step tol1=0.62
.step tol1=0.63
.step tol1=0.64
.step tol1=0.65
.step tol1=0.66
.step tol1=0.67
.step tol1=0.68
.step tol1=0.69
.step tol1=0.7
.step tol1=0.71
.step tol1=0.72
.step tol1=0.73
.step tol1=0.74
.step tol1=0.75
.step tol1=0.76
.step tol1=0.77
.step tol1=0.78
.step tol1=0.79
.step tol1=0.8
.step tol1=0.81
.step tol1=0.82
.step tol1=0.83
.step tol1=0.84
.step tol1=0.85
.step tol1=0.86
.step tol1=0.87
.step tol1=0.88
.step tol1=0.89
.step tol1=0.9
.step tol1=0.91
.step tol1=0.92
.step tol1=0.93
.step tol1=0.94
.step tol1=0.95
.step tol1=0.96
.step tol1=0.97
.step tol1=0.98
.step tol1=0.99
.step tol1=1


Measurement: imax
  step	MAX(-i(v1))	FROM	TO
     1	9.80646	0	0.0001
     2	9.80646	0	0.0001
     3	9.80647	0	0.0001
     4	9.80647	0	0.0001
     5	9.80647	0	0.0001
     6	9.80647	0	0.0001
     7	9.80643	0	0.0001
     8	9.80647	0	0.0001
     9	9.80647	0	0.0001
    10	9.80648	0	0.0001
    11	9.80648	0	0.0001
    12	9.80648	0	0.0001
    13	9.80648	0	0.0001
    14	9.80649	0	0.0001
    15	9.80649	0	0.0001
    16	9.80643	0	0.0001
    17	9.80649	0	0.0001
    18	9.80648	0	0.0001
    19	9.80643	0	0.0001
    20	9.80643	0	0.0001
    21	9.80643	0	0.0001
    22	9.80643	0	0.0001
    23	9.80643	0	0.0001
    24	9.80643	0	0.0001
    25	9.80643	0	0.0001
    26	9.80643	0	0.0001
    27	9.80643	0	0.0001
    28	9.80643	0	0.0001
    29	9.80643	0	0.0001
    30	9.80643	0	0.0001
    31	9.80643	0	0.0001
    32	9.80643	0	0.0001
    33	9.80643	0	0.0001
    34	9.80643	0	0.0001
    35	9.80643	0	0.0001
    36	9.80643	0	0.0001
    37	9.80643	0	0.0001
    38	9.80643	0	0.0001
    39	9.80643	0	0.0001
    40	9.80643	0	0.0001
    41	9.80643	0	0.0001
    42	9.80643	0	0.0001
    43	9.80643	0	0.0001
    44	9.80643	0	0.0001
    45	9.80643	0	0.0001
    46	9.80643	0	0.0001
    47	9.80643	0	0.0001
    48	9.80643	0	0.0001
    49	9.80643	0	0.0001
    50	9.80643	0	0.0001
    51	9.80643	0	0.0001
    52	9.80643	0	0.0001
    53	9.80643	0	0.0001
    54	9.80643	0	0.0001
    55	9.80643	0	0.0001
    56	9.80643	0	0.0001
    57	9.80643	0	0.0001
    58	9.80643	0	0.0001
    59	9.80643	0	0.0001
    60	9.80643	0	0.0001
    61	9.80643	0	0.0001
    62	9.80643	0	0.0001
    63	9.80643	0	0.0001
    64	9.80643	0	0.0001
    65	9.80643	0	0.0001
    66	9.80643	0	0.0001
    67	9.80643	0	0.0001
    68	9.80643	0	0.0001
    69	9.80643	0	0.0001
    70	9.80643	0	0.0001
    71	9.80643	0	0.0001
    72	9.80643	0	0.0001
    73	9.80643	0	0.0001
    74	9.80643	0	0.0001
    75	9.80643	0	0.0001
    76	9.80643	0	0.0001
    77	9.80643	0	0.0001
    78	9.80643	0	0.0001
    79	9.80643	0	0.0001
    80	9.80643	0	0.0001
    81	9.80643	0	0.0001
    82	9.80643	0	0.0001
    83	9.80643	0	0.0001
    84	9.80643	0	0.0001
    85	9.80643	0	0.0001
    86	9.80643	0	0.0001
    87	9.80643	0	0.0001
    88	9.80643	0	0.0001
    89	9.80643	0	0.0001
    90	9.80643	0	0.0001
    91	9.80643	0	0.0001
    92	9.80643	0	0.0001
    93	9.80643	0	0.0001
    94	9.80647	0	0.0001
    95	9.80647	0	0.0001
    96	9.80647	0	0.0001
    97	9.80647	0	0.0001
    98	9.80643	0	0.0001
    99	9.80643	0	0.0001
   100	9.80643	0	0.0001
   101	9.80643	0	0.0001

Measurement: tr1
  step	tr1	FROM	TO
     1	1.8838e-007	2.01446e-005	2.0333e-005
     2	1.88375e-007	2.01445e-005	2.03329e-005
     3	1.88369e-007	2.01444e-005	2.03328e-005
     4	1.88362e-007	2.01444e-005	2.03327e-005
     5	1.88354e-007	2.01443e-005	2.03326e-005
     6	1.88371e-007	2.01442e-005	2.03326e-005
     7	1.88359e-007	2.01442e-005	2.03325e-005
     8	1.88349e-007	2.01441e-005	2.03324e-005
     9	1.88337e-007	2.0144e-005	2.03324e-005
    10	1.88324e-007	2.0144e-005	2.03323e-005
    11	1.88309e-007	2.01439e-005	2.03322e-005
    12	1.88294e-007	2.01438e-005	2.03321e-005
    13	1.88277e-007	2.01438e-005	2.0332e-005
    14	1.8826e-007	2.01437e-005	2.0332e-005
    15	1.88241e-007	2.01436e-005	2.03319e-005
    16	1.88218e-007	2.01436e-005	2.03318e-005
    17	1.88201e-007	2.01435e-005	2.03317e-005
    18	1.8818e-007	2.01435e-005	2.03316e-005
    19	1.88163e-007	2.01434e-005	2.03316e-005
    20	1.88153e-007	2.01433e-005	2.03315e-005
    21	1.88142e-007	2.01433e-005	2.03314e-005
    22	1.88133e-007	2.01432e-005	2.03314e-005
    23	1.88126e-007	2.01432e-005	2.03313e-005
    24	1.88118e-007	2.01431e-005	2.03312e-005
    25	1.8811e-007	2.01431e-005	2.03312e-005
    26	1.88101e-007	2.0143e-005	2.03311e-005
    27	1.88093e-007	2.0143e-005	2.03311e-005
    28	1.88084e-007	2.01429e-005	2.0331e-005
    29	1.88074e-007	2.01429e-005	2.03309e-005
    30	1.88065e-007	2.01428e-005	2.03309e-005
    31	1.88055e-007	2.01428e-005	2.03308e-005
    32	1.88044e-007	2.01427e-005	2.03308e-005
    33	1.88034e-007	2.01427e-005	2.03307e-005
    34	1.88023e-007	2.01426e-005	2.03307e-005
    35	1.88013e-007	2.01426e-005	2.03306e-005
    36	1.88008e-007	2.01425e-005	2.03305e-005
    37	1.87992e-007	2.01425e-005	2.03305e-005
    38	1.87988e-007	2.01424e-005	2.03304e-005
    39	1.87985e-007	2.01424e-005	2.03304e-005
    40	1.87981e-007	2.01424e-005	2.03303e-005
    41	1.87979e-007	2.01423e-005	2.03303e-005
    42	1.87976e-007	2.01423e-005	2.03302e-005
    43	1.87974e-007	2.01422e-005	2.03302e-005
    44	1.87972e-007	2.01422e-005	2.03302e-005
    45	1.8797e-007	2.01421e-005	2.03301e-005
    46	1.87968e-007	2.01421e-005	2.03301e-005
    47	1.87967e-007	2.01421e-005	2.033e-005
    48	1.87966e-007	2.0142e-005	2.033e-005
    49	1.87964e-007	2.0142e-005	2.033e-005
    50	1.87964e-007	2.01419e-005	2.03299e-005
    51	1.87964e-007	2.01419e-005	2.03299e-005
    52	1.87964e-007	2.01419e-005	2.03298e-005
    53	1.87964e-007	2.01418e-005	2.03298e-005
    54	1.87965e-007	2.01418e-005	2.03298e-005
    55	1.87965e-007	2.01418e-005	2.03297e-005
    56	1.87966e-007	2.01417e-005	2.03297e-005
    57	1.87968e-007	2.01417e-005	2.03297e-005
    58	1.87969e-007	2.01417e-005	2.03296e-005
    59	1.87971e-007	2.01416e-005	2.03296e-005
    60	1.87972e-007	2.01416e-005	2.03296e-005
    61	1.87974e-007	2.01415e-005	2.03295e-005
    62	1.87977e-007	2.01415e-005	2.03295e-005
    63	1.87979e-007	2.01415e-005	2.03295e-005
    64	1.87982e-007	2.01414e-005	2.03294e-005
    65	1.87984e-007	2.01414e-005	2.03294e-005
    66	1.87987e-007	2.01414e-005	2.03294e-005
    67	1.8799e-007	2.01413e-005	2.03293e-005
    68	1.87993e-007	2.01413e-005	2.03293e-005
    69	1.88199e-007	2.01413e-005	2.03295e-005
    70	1.88206e-007	2.01412e-005	2.03295e-005
    71	1.88214e-007	2.01412e-005	2.03294e-005
    72	1.88221e-007	2.01412e-005	2.03294e-005
    73	1.88229e-007	2.01412e-005	2.03294e-005
    74	1.88237e-007	2.01411e-005	2.03294e-005
    75	1.88246e-007	2.01411e-005	2.03293e-005
    76	1.88254e-007	2.01411e-005	2.03293e-005
    77	1.88263e-007	2.0141e-005	2.03293e-005
    78	1.88272e-007	2.0141e-005	2.03293e-005
    79	1.88281e-007	2.0141e-005	2.03292e-005
    80	1.8829e-007	2.01409e-005	2.03292e-005
    81	1.883e-007	2.01409e-005	2.03292e-005
    82	1.88309e-007	2.01409e-005	2.03292e-005
    83	1.88319e-007	2.01409e-005	2.03292e-005
    84	1.88329e-007	2.01408e-005	2.03292e-005
    85	1.88339e-007	2.01408e-005	2.03291e-005
    86	1.8835e-007	2.01408e-005	2.03291e-005
    87	1.8836e-007	2.01407e-005	2.03291e-005
    88	1.88371e-007	2.01407e-005	2.03291e-005
    89	1.88382e-007	2.01407e-005	2.03291e-005
    90	1.88393e-007	2.01407e-005	2.0329e-005
    91	1.88404e-007	2.01406e-005	2.0329e-005
    92	1.88416e-007	2.01406e-005	2.0329e-005
    93	1.88427e-007	2.01406e-005	2.0329e-005
    94	1.8844e-007	2.01405e-005	2.0329e-005
    95	1.88452e-007	2.01405e-005	2.0329e-005
    96	1.88464e-007	2.01405e-005	2.0329e-005
    97	1.88476e-007	2.01405e-005	2.03289e-005
    98	1.88487e-007	2.01404e-005	2.03289e-005
    99	1.88499e-007	2.01404e-005	2.03289e-005
   100	1.88512e-007	2.01404e-005	2.03289e-005
   101	1.88525e-007	2.01404e-005	2.03289e-005

Measurement: tr2
  step	tr2	FROM	TO
     1	4.24943e-007	6.12087e-005	6.16336e-005
     2	4.1945e-007	6.12082e-005	6.16276e-005
     3	4.14014e-007	6.12077e-005	6.16217e-005
     4	4.1932e-007	6.12076e-005	6.16269e-005
     5	4.1763e-007	6.12071e-005	6.16248e-005
     6	4.1641e-007	6.12067e-005	6.16231e-005
     7	4.11221e-007	6.12067e-005	6.16179e-005
     8	4.10921e-007	6.12058e-005	6.16167e-005
     9	4.11062e-007	6.12054e-005	6.16165e-005
    10	4.12323e-007	6.1205e-005	6.16173e-005
    11	4.1375e-007	6.12046e-005	6.16183e-005
    12	4.15348e-007	6.12042e-005	6.16196e-005
    13	4.17172e-007	6.12039e-005	6.1621e-005
    14	4.19261e-007	6.12035e-005	6.16228e-005
    15	4.10395e-007	6.12038e-005	6.16142e-005
    16	4.15547e-007	6.1203e-005	6.16185e-005
    17	4.19141e-007	6.12028e-005	6.16219e-005
    18	4.13959e-007	6.12027e-005	6.16167e-005
    19	4.24609e-007	6.12018e-005	6.16265e-005
    20	4.12449e-007	6.12012e-005	6.16136e-005
    21	4.19667e-007	6.12012e-005	6.16209e-005
    22	4.15477e-007	6.12006e-005	6.16161e-005
    23	4.12527e-007	6.12003e-005	6.16128e-005
    24	4.14651e-007	6.12002e-005	6.16149e-005
    25	4.14829e-007	6.11999e-005	6.16148e-005
    26	4.15024e-007	6.11996e-005	6.16147e-005
    27	4.1523e-007	6.11993e-005	6.16146e-005
    28	4.15426e-007	6.1199e-005	6.16145e-005
    29	4.15629e-007	6.11988e-005	6.16144e-005
    30	4.15839e-007	6.11985e-005	6.16143e-005
    31	4.20403e-007	6.11979e-005	6.16183e-005
    32	4.1112e-007	6.11975e-005	6.16086e-005
    33	4.16859e-007	6.11979e-005	6.16147e-005
    34	4.17056e-007	6.11976e-005	6.16147e-005
    35	4.16773e-007	6.11972e-005	6.16139e-005
    36	4.17038e-007	6.11969e-005	6.16139e-005
    37	4.15928e-007	6.11966e-005	6.16125e-005
    38	4.16031e-007	6.11964e-005	6.16124e-005
    39	4.16134e-007	6.11961e-005	6.16123e-005
    40	4.16237e-007	6.11959e-005	6.16121e-005
    41	4.16343e-007	6.11956e-005	6.1612e-005
    42	4.16451e-007	6.11954e-005	6.16119e-005
    43	4.1656e-007	6.11952e-005	6.16117e-005
    44	4.1667e-007	6.11949e-005	6.16116e-005
    45	4.16782e-007	6.11947e-005	6.16115e-005
    46	4.16895e-007	6.11945e-005	6.16114e-005
    47	4.1684e-007	6.11943e-005	6.16111e-005
    48	4.16958e-007	6.11941e-005	6.1611e-005
    49	4.17281e-007	6.11938e-005	6.16111e-005
    50	4.17341e-007	6.11937e-005	6.16111e-005
    51	4.17553e-007	6.11935e-005	6.1611e-005
    52	4.17745e-007	6.11933e-005	6.1611e-005
    53	4.17914e-007	6.11931e-005	6.1611e-005
    54	4.18061e-007	6.11929e-005	6.16109e-005
    55	4.18208e-007	6.11927e-005	6.16109e-005
    56	4.18832e-007	6.11925e-005	6.16113e-005
    57	4.18992e-007	6.11923e-005	6.16113e-005
    58	4.199e-007	6.1192e-005	6.16119e-005
    59	4.20017e-007	6.11918e-005	6.16118e-005
    60	4.20012e-007	6.11916e-005	6.16117e-005
    61	4.20146e-007	6.11915e-005	6.16116e-005
    62	4.20819e-007	6.11913e-005	6.16122e-005
    63	4.2142e-007	6.11912e-005	6.16126e-005
    64	4.23392e-007	6.1191e-005	6.16144e-005
    65	4.23974e-007	6.11908e-005	6.16148e-005
    66	4.19589e-007	6.11906e-005	6.16102e-005
    67	4.18965e-007	6.11904e-005	6.16094e-005
    68	4.23808e-007	6.11902e-005	6.1614e-005
    69	4.23727e-007	6.11901e-005	6.16138e-005
    70	4.23702e-007	6.11899e-005	6.16136e-005
    71	4.2373e-007	6.11897e-005	6.16135e-005
    72	4.23806e-007	6.11896e-005	6.16134e-005
    73	4.23926e-007	6.11894e-005	6.16133e-005
    74	4.23817e-007	6.11893e-005	6.16131e-005
    75	4.24008e-007	6.11892e-005	6.16132e-005
    76	4.24215e-007	6.1189e-005	6.16132e-005
    77	4.24442e-007	6.11889e-005	6.16133e-005
    78	4.24739e-007	6.11887e-005	6.16135e-005
    79	4.19282e-007	6.11886e-005	6.16078e-005
    80	4.18347e-007	6.11884e-005	6.16068e-005
    81	4.18629e-007	6.11883e-005	6.16069e-005
    82	4.17487e-007	6.11881e-005	6.16056e-005
    83	4.163e-007	6.1188e-005	6.16043e-005
    84	4.15242e-007	6.11878e-005	6.16031e-005
    85	4.13431e-007	6.11876e-005	6.1601e-005
    86	4.10583e-007	6.11875e-005	6.15981e-005
    87	4.11291e-007	6.11873e-005	6.15986e-005
    88	4.12067e-007	6.11872e-005	6.15993e-005
    89	4.12914e-007	6.11871e-005	6.16e-005
    90	4.13832e-007	6.1187e-005	6.16008e-005
    91	4.14832e-007	6.11868e-005	6.16017e-005
    92	4.11282e-007	6.11867e-005	6.15979e-005
    93	4.12043e-007	6.11865e-005	6.15986e-005
    94	4.13521e-007	6.11868e-005	6.16003e-005
    95	4.18244e-007	6.11852e-005	6.16035e-005
    96	4.19845e-007	6.11851e-005	6.1605e-005
    97	4.14286e-007	6.11866e-005	6.16009e-005
    98	4.1529e-007	6.11864e-005	6.16016e-005
    99	4.24445e-007	6.11864e-005	6.16108e-005
   100	4.25472e-007	6.11851e-005	6.16105e-005
   101	4.12491e-007	6.1186e-005	6.15985e-005

Measurement: vth
  step	v(n004)	at
     1	1.88283	2.01041e-005
     2	1.88348	2.01041e-005
     3	1.88413	2.01041e-005
     4	1.88478	2.0104e-005
     5	1.88543	2.0104e-005
     6	1.88609	2.0104e-005
     7	1.88673	2.0104e-005
     8	1.88738	2.0104e-005
     9	1.88803	2.01039e-005
    10	1.88867	2.01039e-005
    11	1.8893	2.01039e-005
    12	1.88994	2.01039e-005
    13	1.89057	2.01039e-005
    14	1.89119	2.01039e-005
    15	1.89181	2.01038e-005
    16	1.89242	2.01038e-005
    17	1.89303	2.01038e-005
    18	1.89364	2.01038e-005
    19	1.89424	2.01038e-005
    20	1.89483	2.01038e-005
    21	1.89541	2.01038e-005
    22	1.89599	2.01037e-005
    23	1.89657	2.01037e-005
    24	1.89714	2.01037e-005
    25	1.8977	2.01037e-005
    26	1.89825	2.01037e-005
    27	1.8988	2.01037e-005
    28	1.89934	2.01037e-005
    29	1.89988	2.01037e-005
    30	1.90041	2.01036e-005
    31	1.90093	2.01036e-005
    32	1.90145	2.01036e-005
    33	1.90196	2.01036e-005
    34	1.90246	2.01036e-005
    35	1.90296	2.01036e-005
    36	1.90345	2.01036e-005
    37	1.90394	2.01036e-005
    38	1.90441	2.01036e-005
    39	1.90489	2.01036e-005
    40	1.90535	2.01035e-005
    41	1.90581	2.01035e-005
    42	1.90626	2.01035e-005
    43	1.90671	2.01035e-005
    44	1.90715	2.01035e-005
    45	1.90759	2.01035e-005
    46	1.90801	2.01035e-005
    47	1.90844	2.01035e-005
    48	1.90885	2.01035e-005
    49	1.90926	2.01035e-005
    50	1.90967	2.01035e-005
    51	1.91006	2.01034e-005
    52	1.91046	2.01034e-005
    53	1.91084	2.01034e-005
    54	1.91122	2.01034e-005
    55	1.9116	2.01034e-005
    56	1.91197	2.01034e-005
    57	1.91233	2.01034e-005
    58	1.91269	2.01034e-005
    59	1.91304	2.01034e-005
    60	1.91339	2.01034e-005
    61	1.91373	2.01034e-005
    62	1.91407	2.01034e-005
    63	1.9144	2.01034e-005
    64	1.91473	2.01033e-005
    65	1.91505	2.01033e-005
    66	1.91536	2.01033e-005
    67	1.91567	2.01033e-005
    68	1.91598	2.01033e-005
    69	1.91628	2.01033e-005
    70	1.91657	2.01033e-005
    71	1.91686	2.01033e-005
    72	1.91715	2.01033e-005
    73	1.91743	2.01033e-005
    74	1.91771	2.01033e-005
    75	1.91798	2.01033e-005
    76	1.91824	2.01033e-005
    77	1.91851	2.01033e-005
    78	1.91876	2.01032e-005
    79	1.91902	2.01032e-005
    80	1.91926	2.01032e-005
    81	1.91951	2.01032e-005
    82	1.91975	2.01032e-005
    83	1.91755	2.01031e-005
    84	1.91525	2.0103e-005
    85	1.91301	2.0103e-005
    86	1.91083	2.01029e-005
    87	1.90871	2.01028e-005
    88	1.90665	2.01027e-005
    89	1.90463	2.01026e-005
    90	1.90267	2.01026e-005
    91	1.90076	2.01025e-005
    92	1.8989	2.01024e-005
    93	1.89708	2.01023e-005
    94	1.89531	2.01023e-005
    95	1.89358	2.01022e-005
    96	1.8919	2.01021e-005
    97	1.89025	2.01021e-005
    98	1.88864	2.0102e-005
    99	1.88708	2.0102e-005
   100	1.88555	2.01019e-005
   101	1.88405	2.01018e-005


Date: Wed Mar 23 09:35:16 2022
Total elapsed time: 1.171 seconds.

tnom = 27
temp = 27
method = modified trap
totiter = 2471
traniter = 2441
tranpoints = 1119
accept = 1093
rejected = 26
matrix size = 11
fillins = 0
solver = Normal
Matrix Compiler1: 674 bytes object code size  0.1/0.1/[0.1]
Matrix Compiler2: off  [0.1]/0.1/0.1

